                                  MODFLOW-NWT-SWR1 
      U.S. GEOLOGICAL SURVEY MODULAR FINITE-DIFFERENCE GROUNDWATER-FLOW MODEL
                            VERSION 1.2.0 03/01/2020
                    BASED ON MODFLOW-2005 VERSION 1.12.00 02/03/2017

 LIST FILE: ./output/Agwater1_high.lst
                         UNIT    9

 OPENING ./input/Agwater1.ba6
 FILE TYPE:BAS6   UNIT   75   STATUS:OLD    
 FORMAT:FORMATTED              ACCESS:SEQUENTIAL          

 OPENING ./input/Agwater1.upw
 FILE TYPE:UPW   UNIT    7   STATUS:OLD    
 FORMAT:FORMATTED              ACCESS:SEQUENTIAL          

 OPENING ./input/Agwater1.dis
 FILE TYPE:DIS   UNIT    8   STATUS:OLD    
 FORMAT:FORMATTED              ACCESS:SEQUENTIAL          

 OPENING ./input/Agwater1.nwt
 FILE TYPE:NWT   UNIT   13   STATUS:OLD    
 FORMAT:FORMATTED              ACCESS:SEQUENTIAL          

 OPENING ./input/Agwater1.oc
 FILE TYPE:OC   UNIT   14   STATUS:OLD    
 FORMAT:FORMATTED              ACCESS:SEQUENTIAL          

 OPENING ./input/Agwater1.sfr
 FILE TYPE:SFR   UNIT   15   STATUS:OLD    
 FORMAT:FORMATTED              ACCESS:SEQUENTIAL          

 OPENING ./input/Agwater1.ghb
 FILE TYPE:GHB   UNIT   17   STATUS:OLD    
 FORMAT:FORMATTED              ACCESS:SEQUENTIAL          

 OPENING ./input/Agwater1.uzf
 FILE TYPE:UZF   UNIT   19   STATUS:OLD    
 FORMAT:FORMATTED              ACCESS:SEQUENTIAL          

 OPENING ./input/Agwater1.gag
 FILE TYPE:GAGE   UNIT   32   STATUS:OLD    
 FORMAT:FORMATTED              ACCESS:SEQUENTIAL          

 OPENING ./input/seg1_high.tab
 FILE TYPE:DATA   UNIT   55   STATUS:UNKNOWN
 FORMAT:FORMATTED              ACCESS:SEQUENTIAL          

 OPENING ./input/seg9.tab
 FILE TYPE:DATA   UNIT   56   STATUS:UNKNOWN
 FORMAT:FORMATTED              ACCESS:SEQUENTIAL          

 OPENING ./input/Agwater1.ag
 FILE TYPE:AG   UNIT   57   STATUS:OLD    
 FORMAT:FORMATTED              ACCESS:SEQUENTIAL          

 OPENING ./output/Agwater1_high.hed
 FILE TYPE:DATA   UNIT   62   STATUS:UNKNOWN
 FORMAT:FORMATTED              ACCESS:SEQUENTIAL          

 OPENING ./output/Agwater1gw_high.ts5
 FILE TYPE:DATA   UNIT  105   STATUS:UNKNOWN
 FORMAT:FORMATTED              ACCESS:SEQUENTIAL          

 OPENING ./output/Agwater1SW_high.ts9
 FILE TYPE:DATA   UNIT  107   STATUS:UNKNOWN
 FORMAT:FORMATTED              ACCESS:SEQUENTIAL          

 OPENING ./output/Agwater1SW_ET_high.ts9
 FILE TYPE:DATA   UNIT  108   STATUS:UNKNOWN
 FORMAT:FORMATTED              ACCESS:SEQUENTIAL          

 OPENING ./output/Agwater1_high.uzfot
 FILE TYPE:DATA(BINARY)   UNIT   61   STATUS:UNKNOWN
 FORMAT:BINARY                 ACCESS:SEQUENTIAL          

 OPENING ./output/Agwater1cbc_high.unf
 FILE TYPE:DATA(BINARY)   UNIT  102   STATUS:UNKNOWN
 FORMAT:BINARY                 ACCESS:SEQUENTIAL          

 OPENING ./output/Agwater1_high.uzf1
 FILE TYPE:DATA   UNIT   65   STATUS:UNKNOWN
 FORMAT:FORMATTED              ACCESS:SEQUENTIAL          

 OPENING ./output/Agwater1_high.uzf2
 FILE TYPE:DATA   UNIT   66   STATUS:UNKNOWN
 FORMAT:FORMATTED              ACCESS:SEQUENTIAL          

 OPENING ./output/Agwater1_high.uzf3
 FILE TYPE:DATA   UNIT   67   STATUS:UNKNOWN
 FORMAT:FORMATTED              ACCESS:SEQUENTIAL          

 OPENING ./output/Agwater1_high.uzf4
 FILE TYPE:DATA   UNIT   68   STATUS:UNKNOWN
 FORMAT:FORMATTED              ACCESS:SEQUENTIAL          

 OPENING ./output/Agwater1_high.flw
 FILE TYPE:DATA   UNIT   81   STATUS:UNKNOWN
 FORMAT:FORMATTED              ACCESS:SEQUENTIAL          

 OPENING ./output/Agwater1_high.sg1
 FILE TYPE:DATA   UNIT   83   STATUS:UNKNOWN
 FORMAT:FORMATTED              ACCESS:SEQUENTIAL          

 OPENING ./output/Agwater1_high.sg2
 FILE TYPE:DATA   UNIT   84   STATUS:UNKNOWN
 FORMAT:FORMATTED              ACCESS:SEQUENTIAL          

 OPENING ./output/Agwater1_high.sg3
 FILE TYPE:DATA   UNIT   85   STATUS:UNKNOWN
 FORMAT:FORMATTED              ACCESS:SEQUENTIAL          

 OPENING ./output/Agwater1_high.sg4
 FILE TYPE:DATA   UNIT   86   STATUS:UNKNOWN
 FORMAT:FORMATTED              ACCESS:SEQUENTIAL          

 OPENING ./output/Agwater1_high.sg5
 FILE TYPE:DATA   UNIT   87   STATUS:UNKNOWN
 FORMAT:FORMATTED              ACCESS:SEQUENTIAL          

 OPENING ./output/Agwater1_high.sg6
 FILE TYPE:DATA   UNIT   88   STATUS:UNKNOWN
 FORMAT:FORMATTED              ACCESS:SEQUENTIAL          

 OPENING ./output/Agwater1_high.sg7
 FILE TYPE:DATA   UNIT   89   STATUS:UNKNOWN
 FORMAT:FORMATTED              ACCESS:SEQUENTIAL          

 OPENING ./output/Agwater1_high.sg8
 FILE TYPE:DATA   UNIT   90   STATUS:UNKNOWN
 FORMAT:FORMATTED              ACCESS:SEQUENTIAL          

 OPENING ./output/Agwater1_high.sg9
 FILE TYPE:DATA   UNIT   91   STATUS:UNKNOWN
 FORMAT:FORMATTED              ACCESS:SEQUENTIAL          

 BAS -- BASIC PACKAGE, VERSION 1.1.4, 4/01/2018 INPUT READ FROM UNIT   75
 
 MODFLOW was compiled using mixed precision
 Precision of REAL variables:           6
 Precision of DOUBLE PRECISION variables:          15

 DISCRETIZATION INPUT DATA READ FROM UNIT    8
 #Test problem 2-- Discretization input
 #Example problem using the UZF1 Package
    1 LAYERS        15 ROWS        10 COLUMNS
   49 STRESS PERIOD(S) IN SIMULATION
 MODEL TIME UNIT IS SECONDS
 MODEL LENGTH UNIT IS FEET
  Confining bed flag for each layer:
   0

                     DELR =   5000.00    

                     DELC =   5000.00    



           TOP ELEVATION OF LAYER 1
 READING ON UNIT    8 WITH FORMAT: (10F7.0)            

            1           2           3           4           5           6           7           8           9          10
 ........................................................................................................................
   1    1105.       1105.       0.000       0.000       0.000       0.000       0.000       0.000       0.000       0.000    
   2    1105.       1095.       1105.       0.000       0.000       1100.       1100.       1110.       0.000       0.000    
   3    0.000       1100.       1085.       1080.       1078.       1076.       1073.       1090.       0.000       0.000    
   4    1110.       1100.       1090.       1085.       1076.       1080.       1080.       1070.       1100.       0.000    
   5    1110.       1100.       1085.       1080.       1078.       1074.       1077.       1066.       1075.       1080.    
   6    1105.       1095.       1080.       1077.       1073.       1069.       1070.       1063.       1085.       1095.    
   7    1105.       1090.       1075.       1072.       1070.       1065.       1065.       1069.       1090.       0.000    
   8    0.000       1080.       1070.       1068.       1063.       1060.       1063.       1067.       1090.       0.000    
   9    0.000       1075.       1065.       1062.       1058.       1052.       1055.       1065.       1090.       0.000    
  10    0.000       1070.       1060.       1055.       1046.       1046.       1044.       1060.       1088.       1100.    
  11    0.000       1055.       1050.       1045.       1041.       1042.       1040.       1050.       1075.       0.000    
  12    1027.       1028.       1028.       1032.       1032.       1033.       1032.       1040.       1060.       0.000    
  13    997.0       1004.       1008.       1014.       1020.       1027.       1032.       1038.       1050.       0.000    
  14    0.000       1030.       1040.       1045.       1050.       1050.       1050.       1050.       1044.       0.000    
  15    0.000       0.000       1080.       1080.       1080.       1080.       0.000       0.000       0.000       0.000    



             MODEL LAYER BOTTOM EL. FOR LAYER   1
 READING ON UNIT    8 WITH FORMAT: (10F7.0)            

            1           2           3           4           5           6           7           8           9          10
 ........................................................................................................................
   1    1000.       1000.       0.000       0.000       0.000       0.000       0.000       0.000       0.000       0.000    
   2    1000.       900.0       900.0       0.000       0.000       950.0       950.0       950.0       0.000       0.000    
   3    0.000       850.0       670.0       680.0       680.0       770.0       770.0       890.0       0.000       0.000    
   4    925.0       850.0       650.0       650.0       650.0       680.0       740.0       850.0       950.0       0.000    
   5    925.0       800.0       650.0       600.0       600.0       600.0       650.0       720.0       850.0       950.0    
   6    925.0       800.0       650.0       600.0       550.0       600.0       650.0       720.0       850.0       970.0    
   7    925.0       800.0       650.0       600.0       550.0       600.0       650.0       720.0       950.0       0.000    
   8    0.000       850.0       700.0       650.0       570.0       600.0       700.0       850.0       950.0       0.000    
   9    0.000       850.0       700.0       650.0       540.0       580.0       700.0       850.0       950.0       0.000    
  10    0.000       850.0       700.0       630.0       530.0       580.0       650.0       800.0       900.0       950.0    
  11    0.000       850.0       700.0       620.0       580.0       620.0       700.0       800.0       900.0       0.000    
  12    900.0       830.0       710.0       640.0       600.0       650.0       700.0       800.0       900.0       0.000    
  13    900.0       810.0       750.0       700.0       650.0       700.0       750.0       800.0       900.0       0.000    
  14    0.000       950.0       850.0       850.0       850.0       850.0       850.0       850.0       850.0       0.000    
  15    0.000       0.000       950.0       950.0       950.0       950.0       0.000       0.000       0.000       0.000    


 STRESS PERIOD     LENGTH       TIME STEPS     MULTIPLIER FOR DELT    SS FLAG
 ----------------------------------------------------------------------------
        1         86400.00          1                    1.000         SS
        2         2630000.         30                    1.000         TR
        3         2630000.         30                    1.000         TR
        4         2630000.         30                    1.000         TR
        5         2630000.         30                    1.000         TR
        6         2630000.         30                    1.000         TR
        7         2630000.         30                    1.000         TR
        8         2630000.         30                    1.000         TR
        9         2630000.         30                    1.000         TR
       10         2630000.         30                    1.000         TR
       11         2630000.         30                    1.000         TR
       12         2630000.         30                    1.000         TR
       13         2630000.         30                    1.000         TR
       14         2630000.         30                    1.000         TR
       15         2630000.         30                    1.000         TR
       16         2630000.         30                    1.000         TR
       17         2630000.         30                    1.000         TR
       18         2630000.         30                    1.000         TR
       19         2630000.         30                    1.000         TR
       20         2630000.         30                    1.000         TR
       21         2630000.         30                    1.000         TR
       22         2630000.         30                    1.000         TR
       23         2630000.         30                    1.000         TR
       24         2630000.         30                    1.000         TR
       25         2630000.         30                    1.000         TR
       26         2630000.         30                    1.000         TR
       27         2630000.         30                    1.000         TR
       28         2630000.         30                    1.000         TR
       29         2630000.         30                    1.000         TR
       30         2630000.         30                    1.000         TR
       31         2630000.         30                    1.000         TR
       32         2630000.         30                    1.000         TR
       33         2630000.         30                    1.000         TR
       34         2630000.         30                    1.000         TR
       35         2630000.         30                    1.000         TR
       36         2630000.         30                    1.000         TR
       37         2630000.         30                    1.000         TR
       38         2630000.         30                    1.000         TR
       39         2630000.         30                    1.000         TR
       40         2630000.         30                    1.000         TR
       41         2630000.         30                    1.000         TR
       42         2630000.         30                    1.000         TR
       43         2630000.         30                    1.000         TR
       44         2630000.         30                    1.000         TR
       45         2630000.         30                    1.000         TR
       46         2630000.         30                    1.000         TR
       47         2630000.         30                    1.000         TR
       48         2630000.         30                    1.000         TR
       49         2630000.         30                    1.000         TR

 COMBINED STEADY-STATE AND TRANSIENT SIMULATION



 
 #Test Simulation 2-- Example problem using the UZF1 Package                     
 #Modified from example Problem 1 of SFR1 documentation report                   
 THE FREE FORMAT OPTION HAS BEEN SELECTED



                     BOUNDARY ARRAY FOR LAYER   1
 READING ON UNIT   75 WITH FORMAT: (20I4)              

                1           2           3           4           5           6           7           8           9          10
 ............................................................................................................................
   1            1           1           0           0           0           0           0           0           0           0
   2            1           1           1           0           0           1           1           1           0           0
   3            0           1           1           1           1           1           1           1           0           0
   4            1           1           1           1           1           1           1           1           1           0
   5            1           1           1           1           1           1           1           1           1           1
   6            1           1           1           1           1           1           1           1           1           1
   7            1           1           1           1           1           1           1           1           1           0
   8            0           1           1           1           1           1           1           1           1           0
   9            0           1           1           1           1           1           1           1           1           0
  10            0           1           1           1           1           1           1           1           1           1
  11            0           1           1           1           1           1           1           1           1           0
  12            1           1           1           1           1           1           1           1           1           0
  13            1           1           1           1           1           1           1           1           1           0
  14            0           1           1           1           1           1           1           1           1           0
  15            0           0           1           1           1           1           0           0           0           0

 AQUIFER HEAD WILL BE SET TO   6999.0     AT ALL NO-FLOW NODES (IBOUND=0).



                       INITIAL HEAD FOR LAYER   1
 READING ON UNIT   75 WITH FORMAT: (10F8.0)            

            1           2           3           4           5           6           7           8           9          10
 ........................................................................................................................
   1    1093.       1089.       6999.       6999.       6999.       6999.       6999.       6999.       6999.       6999.    
   2    1090.       1087.       1081.       6999.       6999.       1072.       1071.       1071.       6999.       6999.    
   3    6999.       1079.       1078.       1074.       1072.       1071.       1069.       1068.       6999.       6999.    
   4    1069.       1071.       1070.       1067.       1065.       1064.       1064.       1066.       1066.       6999.    
   5    1065.       1064.       1063.       1062.       1061.       1061.       1060.       1062.       1066.       1068.    
   6    1060.       1058.       1057.       1056.       1056.       1057.       1057.       1059.       1062.       1066.    
   7    1056.       1053.       1052.       1051.       1051.       1052.       1053.       1055.       1056.       6999.    
   8    6999.       1046.       1046.       1046.       1046.       1046.       1048.       1050.       1050.       6999.    
   9    6999.       1039.       1039.       1039.       1040.       1041.       1042.       1043.       1044.       6999.    
  10    6999.       1031.       1032.       1033.       1034.       1035.       1037.       1038.       1039.       1042.    
  11    6999.       1021.       1023.       1027.       1029.       1030.       1032.       1034.       1036.       6999.    
  12    1001.       1009.       1015.       1020.       1023.       1026.       1029.       1030.       1034.       6999.    
  13    994.5      1000.0       1007.       1013.       1019.       1024.       1029.       1034.       1036.       6999.    
  14    6999.       1004.       1009.       1014.       1019.       1024.       1029.       1035.       1039.       6999.    
  15    6999.       6999.       1012.       1015.       1019.       1022.       6999.       6999.       6999.       6999.    

 OUTPUT CONTROL IS SPECIFIED ONLY AT TIME STEPS FOR WHICH OUTPUT IS DESIRED
 HEADS WILL BE SAVED WITH FORMAT: (10F10.3)           
 SAVED HEADS WILL BE LABELED
 COMPACT CELL-BY-CELL BUDGET FILES WILL BE WRITTEN
 HEAD PRINT FORMAT CODE IS   4    DRAWDOWN PRINT FORMAT CODE IS   0
 HEADS WILL BE SAVED ON UNIT   62    DRAWDOWNS WILL BE SAVED ON UNIT    0
 # NWT Input File
 # Test Problem 3 for MODFLOW-NWT
 #HEADTOL  FLUXTOL MAXITEROUT THICKFACT LINMETH IPRNWT IBOTAV OPTIONS DBDREDUCE DBDINCREASE DBDGAMMA MOMFACT BACKFLAG MAXBACKITER BACKTOL BACKREDUCE

 NWT1 -- Newton Solver, VERSION 1.1.4, 4/01/2018
         INPUT READ FROM UNIT 13

 SPECIFIED OPTION:
 SOLVER INPUT VALUES ARE SPECIFIED BY USER
 ***XMD linear solver will be used***
 
   CONVERGENCE CRITERION OF   0.100000E-03 FOR HEAD SOLUTION
   AND A TOLERANCE OF   0.100000E+01 FOR FLOW SOLUTION AND 
   A MAXIMUM OF   500 OUTER ITERATIONS. 


   D-B-D REDUCTION FACTOR OF    0.970000E+00 AND 
   A D-B-D INCREASE FACTOR OF    0.100000E-04 AND 
   A D-B-D RELAXATION OF    0.000000E+00 AND 
   A MOMENTUM FACTOR OF    0.100000E+00 .


 ***BACKTRACKING IS INACTIVE***
 XMD -- LINEAR SOLUTION BY XMD PACKAGE VERSION 1.30
     BY MOTOMU IBARAKI, OHIO STATE UNIVERSITY, COLOMBUS, OH
                 INPUT READ FROM UNIT 13
 ACCELERATION METHOD                    (IACL) =         1
 NODE ORDERING FLAG                   (NORDER) =         0
 LEVEL OF FILL                         (LEVEL) =         7
 MAXIMUM NUMBER OF ORTHOGONALIZATIONS  (NORTH) =         7
 INDEX FOR USING REDUCED SYSTEM      (IREDSYS) =         1
 RESID. REDUCTION CONVERGE CRITERION  (RRCTOL) =  0.000000E+00
 INDEX FOR USING DROP TOLERANCE     (IDROPTOL) =         1
 DROP TOLERANCE VALUE                  (EPSRN) =  0.500000E-02
 CONVERGENCE CRITERIA OF           (HCLOSEXMD) =  0.100000E-03
 MAX. NUMBER OF LINEAR ITERATIONS  (MXITERXMD) =        50


 UPW1 -- UPSTREAM WEIGHTING FLOW PACKAGE, VERSION 1.1.4, 4/01/2018
         INPUT READ FROM UNIT  7

 #Layer-Property Flow Package input for test simulation 2
 CELL-BY-CELL FLOWS WILL BE SAVED ON UNIT  102
 No named parameters

   LAYER FLAGS:
 LAYER       LAYTYP          LAYAVG    CHANI           LAYVKA           LAYWET
 ---------------------------------------------------------------------------
    1             1             0     1.000E+00             0             0

   INTERPRETATION OF LAYER FLAGS:
                        INTERBLOCK     HORIZONTAL    DATA IN
         LAYER TYPE   TRANSMISSIVITY   ANISOTROPY   ARRAY VKA   WETTABILITY
 LAYER   (LAYTYP)        (LAYAVG)      (CHANI)     (LAYVKA)       (LAYWET)
 ---------------------------------------------------------------------------
    1   CONVERTIBLE      HARMONIC     1.000E+00    VERTICAL K  NON-WETTABLE



              HYD. COND. ALONG ROWS FOR LAYER   1
 READING ON UNIT    7 WITH FORMAT: (10F5.0)            

            1           2           3           4           5           6           7           8           9          10
 ........................................................................................................................
   1   2.0000E-03  2.0000E-03   0.000       0.000       0.000       0.000       0.000       0.000       0.000       0.000    
   2   4.0000E-04  2.0000E-03  2.0000E-03   0.000       0.000      4.0000E-04  4.0000E-04  4.0000E-04   0.000       0.000    
   3    0.000      4.0000E-04  2.0000E-03  2.0000E-03  4.0000E-04  4.0000E-04  4.0000E-04  4.0000E-04   0.000       0.000    
   4   4.0000E-04  4.0000E-04  4.0000E-04  2.0000E-03  2.0000E-03  2.0000E-03  4.0000E-04  4.0000E-04  4.0000E-04   0.000    
   5   4.0000E-04  4.0000E-04  4.0000E-04  2.0000E-03  2.0000E-03  2.0000E-03  2.0000E-03  2.0000E-03  2.0000E-03  2.0000E-03
   6   4.0000E-04  4.0000E-04  4.0000E-04  2.0000E-03  2.0000E-03  2.0000E-03  2.0000E-03  2.0000E-03  4.0000E-04  4.0000E-04
   7   4.0000E-04  4.0000E-04  4.0000E-04  2.0000E-03  2.0000E-03  2.0000E-03  2.0000E-03  2.0000E-03  4.0000E-04   0.000    
   8    0.000      4.0000E-04  4.0000E-04  2.0000E-03  2.0000E-03  2.0000E-03  2.0000E-03  4.0000E-04  4.0000E-04   0.000    
   9    0.000      4.0000E-04  4.0000E-04  2.0000E-03  2.0000E-03  2.0000E-03  2.0000E-03  4.0000E-04  4.0000E-04   0.000    
  10    0.000      4.0000E-04  4.0000E-04  2.0000E-03  2.0000E-03  2.0000E-03  2.0000E-03  4.0000E-04  4.0000E-04  4.0000E-04
  11    0.000      4.0000E-04  4.0000E-04  2.0000E-03  2.0000E-03  2.0000E-03  2.0000E-03  4.0000E-04  4.0000E-04   0.000    
  12   4.0000E-04  4.0000E-04  2.0000E-03  2.0000E-03  2.0000E-03  2.0000E-03  2.0000E-03  4.0000E-04  4.0000E-04   0.000    
  13   2.0000E-03  2.0000E-03  2.0000E-03  2.0000E-03  2.0000E-03  2.0000E-03  2.0000E-03  2.0000E-03  2.0000E-03   0.000    
  14    0.000      4.0000E-04  4.0000E-04  4.0000E-04  4.0000E-04  4.0000E-04  4.0000E-04  4.0000E-04  2.0000E-03   0.000    
  15    0.000       0.000      4.0000E-04  4.0000E-04  4.0000E-04  4.0000E-04   0.000       0.000       0.000       0.000    

      VERTICAL HYD. COND. =  1.000000E-06 FOR LAYER   1

         SPECIFIC STORAGE =  1.000000E-06 FOR LAYER   1



                     SPECIFIC YIELD FOR LAYER   1
 READING ON UNIT    7 WITH FORMAT: (10F5.0)            

            1           2           3           4           5           6           7           8           9          10
 ........................................................................................................................
   1   0.2000      0.2000       0.000       0.000       0.000       0.000       0.000       0.000       0.000       0.000    
   2   0.1000      0.2000      0.2000       0.000       0.000      0.1000      0.1000      0.1000       0.000       0.000    
   3    0.000      0.1000      0.2000      0.2000      0.1000      0.1000      0.1000      0.1000       0.000       0.000    
   4   0.1000      0.1000      0.1000      0.2000      0.2000      0.2000      0.1000      0.1000      0.1000       0.000    
   5   0.1000      0.1000      0.1000      0.2000      0.2000      0.2000      0.2000      0.2000      0.2000      0.2000    
   6   0.1000      0.1000      0.1000      0.2000      0.2000      0.2000      0.2000      0.2000      0.1000      0.1000    
   7   0.1000      0.1000      0.1000      0.2000      0.2000      0.2000      0.2000      0.2000      0.1000       0.000    
   8    0.000      0.1000      0.1000      0.2000      0.2000      0.2000      0.2000      0.1000      0.1000       0.000    
   9    0.000      0.1000      0.1000      0.2000      0.2000      0.2000      0.2000      0.1000      0.1000       0.000    
  10    0.000      0.1000      0.1000      0.2000      0.2000      0.2000      0.2000      0.1000      0.1000      0.1000    
  11    0.000      0.1000      0.1000      0.2000      0.2000      0.2000      0.2000      0.1000      0.1000       0.000    
  12   0.1000      0.1000      0.2000      0.2000      0.2000      0.2000      0.2000      0.1000      0.1000       0.000    
  13   0.2000      0.2000      0.2000      0.2000      0.2000      0.2000      0.2000      0.2000      0.2000       0.000    
  14    0.000      0.1000      0.1000      0.1000      0.1000      0.1000      0.1000      0.1000      0.2000       0.000    
  15    0.000       0.000      0.1000      0.1000      0.1000      0.1000       0.000       0.000       0.000       0.000    

 GHB -- GENERAL-HEAD BOUNDARY PACKAGE, VERSION 7, 5/2/2005
         INPUT READ FROM UNIT   17
 No named parameters
 MAXIMUM OF      2 ACTIVE GHB CELLS AT ONE TIME
 CELL-BY-CELL FLOWS WILL BE PRINTED WHEN ICBCFL NOT 0


     0 GHB parameters

 SFR7 -- STREAMFLOW ROUTING PACKAGE, VERSION 1.0.5, 2012-04-05
         INPUT READ FROM UNIT  15
 #SFR2 Package input for Testing supplimental pumping and irrigation
 No named parameters

 PROCESSING SFR2 OPTIONS
 
          2 Specified inflow files will be read with a maximum of       1446 row entries per file
 
Stream loss will be calculated as a factor of the streambed hydraulic conductivity. Multiplication factor is equal to     0.1000000015E+00

 END PROCESSING SFR2 OPTIONS
 


 NUMBER OF STREAM REACHES IS   38

 NUMBER OF STREAM SEGMENTS IS    9

 NUMBER OF STREAM PARAMETERS IS    0

 NUMBER OF STREAM SEGMENTS DEFINED USING PARAMETERS IS              0

 MAXIMUM ERROR FOR STREAM LEAKAGE RATES IS  1.00E-06

 CONSTANT FOR MANNINGS EQUATION IS  1.4860E+00



 STREAM OUTPUT WILL BE WRITTEN TO FILE ON UNIT   81


   STREAM NETWORK DESCRIPTION: 

   LAYER    ROW    COL   SEGMENT   REACH     LENGTH
                          NUMBER   NUMBER    IN CELL        
   --------------------------------------------------
      1      1      1       1        1    4.5000E+03
      1      2      2       1        2    7.0000E+03
      1      3      3       1        3    6.0000E+03
      1      3      4       1        4    5.5500E+03
      1      4      5       2        1    6.5000E+03
      1      5      6       2        2    5.0000E+03
      1      6      6       2        3    5.0000E+03
      1      7      6       2        4    5.0000E+03
      1      8      6       2        5    5.0000E+03
      1      3      5       3        1    5.0000E+03
      1      3      6       3        2    5.0000E+03
      1      3      7       3        3    4.5000E+03
      1      4      8       3        4    6.0000E+03
      1      5      8       3        5    5.0000E+03
      1      6      8       3        6    2.0000E+03
      1      5     10       4        1    2.5000E+03
      1      5      9       4        2    5.0000E+03
      1      6      8       4        3    3.5000E+03
      1      6      8       5        1    4.0000E+03
      1      7      7       5        2    5.0000E+03
      1      8      7       5        3    3.5000E+03
      1      8      6       5        4    2.5000E+03
      1      9      6       6        1    5.0000E+03
      1     10      7       6        2    5.0000E+03
      1     11      7       6        3    5.0000E+03
      1     12      7       6        4    5.0000E+03
      1     13      7       6        5    2.0000E+03
      1     14      9       7        1    5.0000E+03
      1     13      8       7        2    5.5000E+03
      1     13      7       7        3    5.0000E+03
      1     13      6       8        1    5.0000E+03
      1     13      5       8        2    5.0000E+03
      1     13      4       8        3    5.0000E+03
      1     13      3       8        4    5.0000E+03
      1     13      2       8        5    5.0000E+03
      1     13      1       8        6    3.0000E+03
      1      8      6       9        1    3.0000E+03
      1      8      5       9        2    3.0000E+03




 UZF1 -- UNSATURATED FLOW PACKAGE, VERSION 1.5, 09/10/2019
         INPUT READ FROM UNIT 19
 #UZF Package input for test simulation 2
 No named parameters

 PROCESSING UZF OPTIONS
 
 
 INITIAL WATER CONTENT (THTI) WILL BE 
READ FOR THE FIRST SS OR TR STRESS PERIOD
 
 
 RESIDUAL WATER CONTENT (THTR) WILL BE 
READ AND USED FOR THE FIRST TRANSIENT STRESS 
PERIOD
 
 
AIR ENTRY PRESSURE AND ROOT PRESSURE WILL BE 
SPECIFIED BY USER AND UZ ET WILL BE SIMULATED 
AS PRESSURE-HEAD DEPENDENT
 
 
INFILTRATION WILL BE REJECTED USING 
LAND SURFACE K
 
 
HYDRAULIC CONDUCTIVITY OF LAND SURFACE 
WILL BE READ
 

 END PROCESSING UZF OPTIONS



            AREAL EXTENT OF UZ FLOW
 READING ON UNIT   19 WITH FORMAT: (20I4)              

                1           2           3           4           5           6           7           8           9          10
 ............................................................................................................................
   1            1           1           0           0           0           0           0           0           0           0
   2            1           1           1           0           0           1           1           1           0           0
   3            0           1           1           1           1           1           1           1           0           0
   4            1           1           1           1           1           1           1           1           1           0
   5            1           1           1           1           1           1           1           1           1           1
   6            1           1           1           1           1           1           1           1           1           1
   7            1           1           1           1           1           1           1           1           1           0
   8            0           1           1           1           1           1           1           1           1           0
   9            0           1           1           1           1           1           1           1           1           0
  10            0           1           1           1           1           1           1           1           1           1
  11            0           1           1           1           1           1           1           1           1           0
  12            1           1           1           1           1           1           1           1           1           0
  13            1           1           1           1           1           1           1           1           1           0
  14            0           1           1           1           1           1           1           1           1           0
  15            0           0           1           1           1           1           0           0           0           0
 OPTION 1 -- RECHARGE IN UZF TO TOP LAYER ONLY 



            ROUTING OVERLAND RUNOFF
 READING ON UNIT   19 WITH FORMAT: (20I4)              

                1           2           3           4           5           6           7           8           9          10
 ............................................................................................................................
   1            1           1           0           0           0           0           0           0           0           0
   2            1           1           1           0           0           3           3           3           0           0
   3            0           1           1           1           3           3           3           3           0           0
   4            8           8           2           2           2           2           2           3           3           0
   5            8           8           8           8           2           2           2           3           4           4
   6            8           8           8           8           8           2           2           4           4           4
   7            8           8           8           8           8           2           5           5           5           0
   8            0           8           8           8           8           2           5           5           5           0
   9            0           8           8           8           8           6           6           6           6           0
  10            0           8           8           8           8           6           6           6           6           6
  11            0           8           8           8           8           8           6           6           7           0
  12            8           8           8           8           8           8           6           7           7           0
  13            8           8           8           8           8           8           7           7           7           0
  14            0           8           8           8           8           8           7           7           7           0
  15            0           0           8           8           8           8           0           0           0           0



               SATURATED VERTICAL K
 READING ON UNIT   19 WITH FORMAT: (10F4.0)            

            1           2           3           4           5           6           7           8           9          10
 ........................................................................................................................
   1   4.6000E-05  4.6000E-05   0.000       0.000       0.000       0.000       0.000       0.000       0.000       0.000    
   2   4.6000E-05  4.6000E-05  4.6000E-05   0.000       0.000      4.6000E-05  4.6000E-05  4.6000E-05   0.000       0.000    
   3    0.000      4.6000E-05  4.6000E-05  4.6000E-05  4.6000E-05  4.6000E-05  4.6000E-05  4.6000E-05   0.000       0.000    
   4   4.6000E-05  4.6000E-05  4.6000E-05  4.6000E-05  4.6000E-05  4.6000E-05  4.6000E-05  4.6000E-05  4.6000E-05   0.000    
   5   4.6000E-05  4.6000E-05  4.6000E-05  4.6000E-05  4.6000E-05  4.6000E-05  4.6000E-05  4.6000E-05  4.6000E-05  4.6000E-05
   6   4.6000E-05  4.6000E-05  4.6000E-05  4.6000E-05  4.6000E-05  4.6000E-05  4.6000E-05  4.6000E-05  4.6000E-05  4.6000E-05
   7   4.6000E-05  4.6000E-05  4.6000E-05  4.6000E-05  4.6000E-05  4.6000E-05  4.6000E-05  4.6000E-05  4.6000E-05   0.000    
   8    0.000      4.6000E-05  4.6000E-05  4.6000E-05  4.6000E-05  4.6000E-05  4.6000E-05  4.6000E-05  4.6000E-05   0.000    
   9    0.000      4.6000E-05  4.6000E-05  4.6000E-05  4.6000E-05  4.6000E-05  4.6000E-05  4.6000E-05  4.6000E-05   0.000    
  10    0.000      4.6000E-05  4.6000E-05  4.6000E-05  4.6000E-05  4.6000E-05  4.6000E-05  4.6000E-05  4.6000E-05  4.6000E-05
  11    0.000      4.6000E-05  4.6000E-05  4.6000E-05  4.6000E-05  4.6000E-05  4.6000E-05  4.6000E-05  4.6000E-05   0.000    
  12   4.6000E-05  4.6000E-05  4.6000E-05  4.6000E-05  4.6000E-05  4.6000E-05  4.6000E-05  4.6000E-05  4.6000E-05   0.000    
  13   4.6000E-05  4.6000E-05  4.6000E-05  4.6000E-05  4.6000E-05  4.6000E-05  4.6000E-05  4.6000E-05  4.6000E-05   0.000    
  14    0.000      4.6000E-05  4.6000E-05  4.6000E-05  4.6000E-05  4.6000E-05  4.6000E-05  4.6000E-05  4.6000E-05   0.000    
  15    0.000       0.000      4.6000E-05  4.6000E-05  4.6000E-05  4.6000E-05   0.000       0.000       0.000       0.000    



            LAND SURFACE VERTICAL K
 READING ON UNIT   19 WITH FORMAT: (10F4.0)            

            1           2           3           4           5           6           7           8           9          10
 ........................................................................................................................
   1   1.0000E-05  1.0000E-05   0.000       0.000       0.000       0.000       0.000       0.000       0.000       0.000    
   2   1.0000E-05  1.0000E-05  1.0000E-05   0.000       0.000      1.0000E-05  1.0000E-05  1.0000E-05   0.000       0.000    
   3    0.000      1.0000E-05  1.0000E-05  1.0000E-05  1.0000E-05  1.0000E-05  1.0000E-05  1.0000E-05   0.000       0.000    
   4   1.0000E-05  1.0000E-05  1.0000E-05  1.0000E-05  1.0000E-05  1.0000E-05  1.0000E-05  1.0000E-05  1.0000E-05   0.000    
   5   1.0000E-05  1.0000E-05  1.0000E-05  1.0000E-05  1.0000E-05  1.0000E-05  1.0000E-05  1.0000E-05  1.0000E-05  1.0000E-05
   6   1.0000E-05  1.0000E-05  1.0000E-05  1.0000E-05  1.0000E-05  1.0000E-05  1.0000E-05  1.0000E-05  1.0000E-05  1.0000E-05
   7   1.0000E-05  1.0000E-05  1.0000E-05  1.0000E-05  1.0000E-05  1.0000E-05  1.0000E-05  1.0000E-05  1.0000E-05   0.000    
   8    0.000      1.0000E-05  1.0000E-05  1.0000E-05  1.0000E-05  1.0000E-05  1.0000E-05  1.0000E-05  1.0000E-05   0.000    
   9    0.000      1.0000E-05  1.0000E-05  1.0000E-05  1.0000E-05  1.0000E-05  1.0000E-05  1.0000E-05  1.0000E-05   0.000    
  10    0.000      1.0000E-05  1.0000E-05  1.0000E-05  1.0000E-05  1.0000E-05  1.0000E-05  1.0000E-05  1.0000E-05  1.0000E-05
  11    0.000      1.0000E-05  1.0000E-05  1.0000E-05  1.0000E-05  1.0000E-05  1.0000E-05  1.0000E-05  1.0000E-05   0.000    
  12   1.0000E-05  1.0000E-05  1.0000E-05  1.0000E-05  1.0000E-05  1.0000E-05  1.0000E-05  1.0000E-05  1.0000E-05   0.000    
  13   1.0000E-05  1.0000E-05  1.0000E-05  1.0000E-05  1.0000E-05  1.0000E-05  1.0000E-05  1.0000E-05  1.0000E-05   0.000    
  14    0.000      1.0000E-05  1.0000E-05  1.0000E-05  1.0000E-05  1.0000E-05  1.0000E-05  1.0000E-05  1.0000E-05   0.000    
  15    0.000       0.000      1.0000E-05  1.0000E-05  1.0000E-05  1.0000E-05   0.000       0.000       0.000       0.000    

     BROOKS-COREY EPSILON =   7.50000    

  SATURATED WATER CONTENT =  0.380000    

   RESIDUAL WATER CONTENT =  0.200000    

    INITIAL WATER CONTENT =  0.200000    

UNSATURATED FLOW RESULTS WILL BE PRINTED TO SEPARATE FILES FOR SELECTED MODEL CELLS, AND TIME STEPS AS DEFINED BY OUTPUT CONTROL PACKAGE 

SELECTED MODEL CELLS ARE: 
 ROW NUMBER  COLUMN NUMBER  FORTRAN UNIT NUMBER  OUTPUT OPTION


       6             4                 65                 1
       6             5                 66                 2
       8             4                 67                 3
       0             0                 68                 4



   9 GAGING STATIONS WERE SPECIFIED.
     (Lakes are identified by a negative value of the Lake Number)
     RECORDS WILL BE WRITTEN TO SEPARATE OUTPUT FILES REPRESENTED BY FOLLOWING UNIT NUMBERS:

 Stream Gages:
  GAGE #   SEGMENT   REACH   UNIT   OUTTYPE
       1       1       4      83       1
       2       2       5      84       1
       3       3       5      85       1
       4       4       3      86       1
       5       5       4      87       4
       6       6       5      88       4
       7       7       3      89       4
       8       8       6      90       4
       9       9       1      91       5





 AG -- AG PACKAGE FOR NWT VERSION 1.1.3,  8/01/2017 INPUT READ FROM UNIT   57
 # AG options

 PROCESSING AG OPTIONS
 
 AGRICULTURAL DEMANDS WILL BE CALCULATED USING ET DEFICIT
 
 
 OPTION TO APPLY SURFACE WATER AS IRRIGATION IS ACTIVE. DIVERTED SURFACE WATER WILL BE APPLIED TO          1 CELLS/RHUS.
 
 
 OPTION TO PUMP SUPPLEMENTARY WATER FOR SURFACE DIVERSION SHORTFALL IS ACTIVATED.  A TOTAL OF             6 SUPPLEMENTAL WELLS ARE ACTIVE
 
 
 OPTION TO APPLY PUMPED WATER AS IRRIGATION IS ACTIVE. PUMPED IRRIGATION WATER WILL BE APPLIED TO          6 CELLS/RHUS.
 
 
 THE MAXIMUM NUMBER OF WELLS FOR SUPPLEMENTING DIVERSIONS OR APPLYING IRRIGATION IS          6 WELLS.
 
 
  UNFORMATTED CELL BY CELL RATES FOR SUP AND IRR WELLS WILL BE SAVED TO FILE UNIT NUMBER         -2
 
 
  UNFORMATTED CELL BY CELL RATES FOR SUP AND IRR WELLS WILL BE SAVED TO FILE UNIT NUMBER         -2
 
 
  UNFORMATTED CELL BY CELL RATES FOR SUP AND IRR WELLS WILL BE SAVED TO FILE UNIT NUMBER         -2
 
 
  UNFORMATTED CELL BY CELL RATES FOR SUP AND IRR WELLS WILL BE SAVED TO FILE UNIT NUMBER         -2
 
 
  GROUND WATER IRRIGATION, POTENTIAL AND ACTUAL ET WILL BE SAVED TO TIMES SERIES OUTPUT FILES.
 
 
  SURFACE WATER IRRIGATION, POTENTIAL AND ACTUAL ET WILL BE SAVED TO TIMES SERIES OUTPUT FILES.
 
 
  SURFACE WATER IRRIGATION, POTENTIAL AND ACTUAL ET WILL BE SAVED TO TIMES SERIES OUTPUT FILES.
 

 END PROCESSING AG OPTIONS
 # AG time series

 PROCESSING TIME SERIES

 FINISHED READING TIME SERIES
 A total number of          1 AG output time series files were activated for SURFACE WATER 
 A total number of          1 AG output time series files were activated for GROUNDWATER 
 A total number of          1 AG output time series files were activated for SURFACE WATER ET
 A total number of          0 AG output time series files were activated for GROUNDWATER ET
1
                            STRESS PERIOD NO.    1, LENGTH =   86400.00    
                            -----------------------------------------------

                              NUMBER OF TIME STEPS =     1

                               MULTIPLIER FOR DELT =     1.000

                            INITIAL TIME STEP SIZE =   86400.00    

 BOUND. NO. LAYER   ROW   COL     STAGE      CONDUCTANCE         
 ----------------------------------------------------------------
      1      1     13      1       988.0          0.3800E-01
      2      1     14      9       1045.          0.3800E-01

      2 GHB CELLS



 CLASSIFICATION & COUNT OF STREAM SEGMENTS BASED ON SOURCE OF INFLOW:

                HEADWATER     DIVERSION     RECEIVES TRIBUTARY FLOW
                ---------     ---------     -----------------------
                     3              2               4



                    INPUT DATA FOR EACH STREAM SEGMENT
 ---------------------------------------------------------------------------------------------

 SEGMENT    SEG.     INFLOW   OVERLAND   STREAM    STREAM   ICALC  OUTFLOW  DIVERSION PRIORITY
    NO.    LENGTH     RATE     RUNOFF      ET       PPT.    METH.  TO SEG.  FROM SEG.    NO.

      1  2.305E+04 2.500E+01 0.000E+00 0.000E+00 0.000E+00    4        2        0        0
      2  2.650E+04 0.000E+00 0.000E+00 0.000E+00 0.000E+00    1        6        0        0
      3  2.750E+04 2.000E+00 0.000E+00 0.000E+00 0.000E+00    0        5        1        0
      4  1.100E+04 1.000E+01 0.000E+00 0.000E+00 0.000E+00    1        5        0        0
      5  1.500E+04 0.000E+00 0.000E+00 0.000E+00 0.000E+00    3        6        0        0
      6  2.200E+04 0.000E+00 0.000E+00 0.000E+00 0.000E+00    1        8        0        0
      7  1.550E+04 1.500E+02 0.000E+00 0.000E+00 0.000E+00    2        8        0        0
      8  2.800E+04 0.000E+00 0.000E+00 0.000E+00 0.000E+00    2        0        0        0
      9  6.000E+03 0.000E+00 0.000E+00 0.000E+00 0.000E+00    1        0        2        0


         STREAMBED PROPERTIES AND STREAM DIMENSIONS

 SEGMENT     BED HYD. COND.      BED THICKNESS     ELEV.-TOP OF BED     WIDTH OF STREAM     DEPTH OF STREAM    STREAM ROUGHNESS
    No.     UPPER     LOWER     UPPER     LOWER     UPPER     LOWER     UPPER     LOWER     UPPER     LOWER   CHANNEL      BANK

     1  3.000E-05 3.000E-05 3.000E+00 3.000E+00 1.095E+03 1.075E+03
     2  3.000E-05 3.000E-05 3.000E+00 3.000E+00 1.075E+03 1.050E+03 1.200E+01 1.200E+01                     3.000E-02
     3  3.000E-05 3.000E-05 2.000E+00 2.000E+00 1.075E+03 1.060E+03 1.000E+01 6.000E+00 2.000E+00 1.000E+00
     4  3.000E-05 3.000E-05 3.000E+00 3.000E+00 1.080E+03 1.060E+03 1.000E+01 1.000E+01                     3.000E-02
     5  3.000E-05 3.000E-05 3.000E+00 3.000E+00 1.060E+03 1.045E+03
     6  3.000E-05 3.000E-05 3.000E+00 3.000E+00 1.045E+03 1.025E+03 1.200E+01 1.200E+01                     3.000E-02
     7  6.000E-05 6.000E-05 3.000E+00 3.000E+00 1.040E+03 1.025E+03                                         2.500E-02 4.500E-02
     8  6.000E-05 6.000E-05 3.000E+00 3.000E+00 1.025E+03 9.900E+02                                         2.500E-02 4.500E-02
     9  0.000E+00 0.000E+00 3.000E+00 3.000E+00 1.079E+03 1.078E+03 4.000E+00 4.000E+00                     3.000E-02

  EIGHT POINT CROSS-SECTION DATA FOR SEGMENTS WITH ICALC = 2
    X VALUES X VALUES START FROM LEFT SIDE LOOKING DOWNSTREAM

     SEGMENT NO.        X1        X2        X3        X4        X5        X6        X7        X8
            7      0.000E+00 1.000E+01 8.000E+01 1.000E+02 1.500E+02 1.700E+02 2.400E+02 2.500E+02
            8      0.000E+00 1.000E+01 8.000E+01 1.000E+02 1.500E+02 1.700E+02 2.400E+02 2.500E+02

    Z VALUES ARE RELATIVE TO STREAMBED ELEVATION

     SEGMENT NO.          Z1        Z2        Z3        Z4        Z5        Z6        Z7        Z8
            7      2.000E+01 1.300E+01 1.000E+01 2.000E+00 0.000E+00 1.000E+01 1.300E+01 2.000E+01
            8      2.500E+01 1.700E+01 1.300E+01 4.000E+00 0.000E+00 1.000E+01 1.600E+01 2.000E+01

 STREAMFLOW RELATION WITH DEPTH IS BASED ON EQUATION Q = CDPTH*(DEPTH)**FDPTH
 STREAMFLOW RELATION WITH WIDTH IS BASED ON EQUATION Q = AWDTH*(WIDTH)**BWDTH

 SEGMENT NO.      CDPTH     FDPTH    AWDTH     BWDTH

          5 3.000E-01 3.500E-01 3.800E+00 6.000E-01

 STREAMFLOW RELATION WITH DEPTH AND WIDTH IS BASED ON TABULATED VALUES

  SEGMENT NO.   STREAMFLOW       DEPTH       WIDTH

          1     5.0000E-01   2.5000E-01   3.0000E+00
          1     1.0000E+00   4.0000E-01   3.5000E+00
          1     2.0000E+00   5.5000E-01   4.2000E+00
          1     4.0000E+00   7.0000E-01   5.3000E+00
          1     7.0000E+00   8.0000E-01   7.0000E+00
          1     1.0000E+01   9.0000E-01   8.5000E+00
          1     2.0000E+01   1.1000E+00   1.2000E+01
          1     3.0000E+01   1.2500E+00   1.4000E+01
          1     5.0000E+01   1.4000E+00   1.7000E+01
          1     7.5000E+01   1.7000E+00   2.0000E+01
          1     1.0000E+02   1.8000E+00   2.2000E+01



TABULAR INFLOWS WERE READ FOR SEGMENT      1
FROM FILE UNIT NUMBER     55

          TIMES                    INFLOWS
         0.0000000000E+00     0.3750000000E+01
         0.8640000000E+05     0.1650000000E+02
         0.2760000000E+07     0.3150000000E+02
         0.5270000000E+07     0.5775000000E+02
         0.7950000000E+07     0.2100000000E+02
         0.1050000000E+08     0.7425000000E+02
         0.1320000000E+08     0.6225000000E+02
         0.1580000000E+08     0.5625000000E+02
         0.1850000000E+08     0.4575000000E+02
         0.2120000000E+08     0.3525000000E+02
         0.2380000000E+08     0.2625000000E+02
         0.2640000000E+08     0.1950000000E+02
         0.2900000000E+08     0.1725000000E+02
         0.3170000000E+08     0.1425000000E+02
         0.3440000000E+08     0.1575000000E+02
         0.3680000000E+08     0.7350000000E+02
         0.3950000000E+08     0.5625000000E+02
         0.4210000000E+08     0.4725000000E+02
         0.4480000000E+08     0.4350000000E+02
         0.4730000000E+08     0.4050000000E+02
         0.5000000000E+08     0.2775000000E+02
         0.5270000000E+08     0.1875000000E+02
         0.5530000000E+08     0.1650000000E+02
         0.5800000000E+08     0.1575000000E+02
         0.6060000000E+08     0.1500000000E+02
         0.6320000000E+08     0.1425000000E+02
         0.6330000000E+08     0.1650000000E+02
         0.6600000000E+08     0.3150000000E+02
         0.6850000000E+08     0.5775000000E+02
         0.7120000000E+08     0.2100000000E+02
         0.7370000000E+08     0.7425000000E+02
         0.7640000000E+08     0.6225000000E+02
         0.7900000000E+08     0.5625000000E+02
         0.8170000000E+08     0.4575000000E+02
         0.8440000000E+08     0.3525000000E+02
         0.8700000000E+08     0.2625000000E+02
         0.8960000000E+08     0.1950000000E+02
         0.9220000000E+08     0.1725000000E+02
         0.9490000000E+08     0.1425000000E+02
         0.9760000000E+08     0.1575000000E+02
         0.1000000000E+09     0.7350000000E+02
         0.1030000000E+09     0.5625000000E+02
         0.1050000000E+09     0.4725000000E+02
         0.1080000000E+09     0.4350000000E+02
         0.1110000000E+09     0.4050000000E+02
         0.1130000000E+09     0.2775000000E+02
         0.1160000000E+09     0.1875000000E+02
         0.1190000000E+09     0.1650000000E+02
         0.1210000000E+09     0.1575000000E+02
         0.1240000000E+09     0.1500000000E+02
         0.1260000000E+09     0.1425000000E+02
TABULAR INFLOWS WERE READ FOR SEGMENT      9
FROM FILE UNIT NUMBER     56

          TIMES                    INFLOWS
         0.0000000000E+00     0.1000000000E+03
         0.8640000000E+05     0.1000000000E+03
         0.1730000000E+06     0.1000000000E+03
         0.2590000000E+06     0.1000000000E+03
         0.3460000000E+06     0.1000000000E+03
         0.4320000000E+06     0.1000000000E+03
         0.5180000000E+06     0.1000000000E+03
         0.6050000000E+06     0.1000000000E+03
         0.6910000000E+06     0.1000000000E+03
         0.7780000000E+06     0.1000000000E+03
         0.8640000000E+06     0.1000000000E+03
         0.9500000000E+06     0.1000000000E+03
         0.1040000000E+07     0.1000000000E+03
         0.1120000000E+07     0.1000000000E+03
         0.1210000000E+07     0.1000000000E+03
         0.1300000000E+07     0.1000000000E+03
         0.1380000000E+07     0.1000000000E+03
         0.1470000000E+07     0.1000000000E+03
         0.1560000000E+07     0.1000000000E+03
         0.1640000000E+07     0.1000000000E+03
         0.1730000000E+07     0.1000000000E+03
         0.1810000000E+07     0.1000000000E+03
         0.1900000000E+07     0.1000000000E+03
         0.1990000000E+07     0.1000000000E+03
         0.2070000000E+07     0.1000000000E+03
         0.2160000000E+07     0.1000000000E+03
         0.2250000000E+07     0.1000000000E+03
         0.2330000000E+07     0.1000000000E+03
         0.2420000000E+07     0.1000000000E+03
         0.2510000000E+07     0.1000000000E+03
         0.2590000000E+07     0.1000000000E+03
         0.2680000000E+07     0.1000000000E+03
         0.2760000000E+07     0.1000000000E+03
         0.2850000000E+07     0.1000000000E+03
         0.2940000000E+07     0.1000000000E+03
         0.3020000000E+07     0.1000000000E+03
         0.3110000000E+07     0.1000000000E+03
         0.3200000000E+07     0.1000000000E+03
         0.3280000000E+07     0.1000000000E+03
         0.3370000000E+07     0.1000000000E+03
         0.3460000000E+07     0.1000000000E+03
         0.3540000000E+07     0.1000000000E+03
         0.3630000000E+07     0.1000000000E+03
         0.3720000000E+07     0.1000000000E+03
         0.3800000000E+07     0.1000000000E+03
         0.3890000000E+07     0.1000000000E+03
         0.3970000000E+07     0.1000000000E+03
         0.4060000000E+07     0.1000000000E+03
         0.4150000000E+07     0.1000000000E+03
         0.4230000000E+07     0.1000000000E+03
         0.4320000000E+07     0.1000000000E+03
         0.4410000000E+07     0.1000000000E+03
         0.4490000000E+07     0.1000000000E+03
         0.4580000000E+07     0.1000000000E+03
         0.4670000000E+07     0.1000000000E+03
         0.4750000000E+07     0.1000000000E+03
         0.4840000000E+07     0.1000000000E+03
         0.4920000000E+07     0.1000000000E+03
         0.5010000000E+07     0.1000000000E+03
         0.5100000000E+07     0.1000000000E+03
         0.5180000000E+07     0.1000000000E+03
         0.5270000000E+07     0.1000000000E+03
         0.5360000000E+07     0.1000000000E+03
         0.5440000000E+07     0.1000000000E+03
         0.5530000000E+07     0.1000000000E+03
         0.5620000000E+07     0.1000000000E+03
         0.5700000000E+07     0.1000000000E+03
         0.5790000000E+07     0.1000000000E+03
         0.5880000000E+07     0.1000000000E+03
         0.5960000000E+07     0.1000000000E+03
         0.6050000000E+07     0.1000000000E+03
         0.6130000000E+07     0.1000000000E+03
         0.6220000000E+07     0.1000000000E+03
         0.6310000000E+07     0.1000000000E+03
         0.6390000000E+07     0.1000000000E+03
         0.6480000000E+07     0.1000000000E+03
         0.6570000000E+07     0.1000000000E+03
         0.6650000000E+07     0.1000000000E+03
         0.6740000000E+07     0.1000000000E+03
         0.6830000000E+07     0.1000000000E+03
         0.6910000000E+07     0.1000000000E+03
         0.7000000000E+07     0.1000000000E+03
         0.7080000000E+07     0.1000000000E+03
         0.7170000000E+07     0.1000000000E+03
         0.7260000000E+07     0.1000000000E+03
         0.7340000000E+07     0.1000000000E+03
         0.7430000000E+07     0.1000000000E+03
         0.7520000000E+07     0.1000000000E+03
         0.7600000000E+07     0.1000000000E+03
         0.7690000000E+07     0.1000000000E+03
         0.7780000000E+07     0.1000000000E+03
         0.7860000000E+07     0.1000000000E+03
         0.7950000000E+07     0.1000000000E+03
         0.8040000000E+07     0.1000000000E+03
         0.8120000000E+07     0.1000000000E+03
         0.8210000000E+07     0.1000000000E+03
         0.8290000000E+07     0.1000000000E+03
         0.8380000000E+07     0.1000000000E+03
         0.8470000000E+07     0.1000000000E+03
         0.8550000000E+07     0.1000000000E+03
         0.8640000000E+07     0.1000000000E+03
         0.8730000000E+07     0.1000000000E+03
         0.8810000000E+07     0.1000000000E+03
         0.8900000000E+07     0.1000000000E+03
         0.8990000000E+07     0.1000000000E+03
         0.9070000000E+07     0.1000000000E+03
         0.9160000000E+07     0.1000000000E+03
         0.9240000000E+07     0.1000000000E+03
         0.9330000000E+07     0.1000000000E+03
         0.9420000000E+07     0.1000000000E+03
         0.9500000000E+07     0.1000000000E+03
         0.9590000000E+07     0.1000000000E+03
         0.9680000000E+07     0.1000000000E+03
         0.9760000000E+07     0.1000000000E+03
         0.9850000000E+07     0.1000000000E+03
         0.9940000000E+07     0.1000000000E+03
         0.1000000000E+08     0.1000000000E+03
         0.1010000000E+08     0.1000000000E+03
         0.1020000000E+08     0.1000000000E+03
         0.1030000000E+08     0.1000000000E+03
         0.1040000000E+08     0.1000000000E+03
         0.1050000000E+08     0.1000000000E+03
         0.1050000000E+08     0.1000000000E+03
         0.1060000000E+08     0.1000000000E+03
         0.1070000000E+08     0.1000000000E+03
         0.1080000000E+08     0.1000000000E+03
         0.1090000000E+08     0.1000000000E+03
         0.1100000000E+08     0.1000000000E+03
         0.1110000000E+08     0.1000000000E+03
         0.1110000000E+08     0.1000000000E+03
         0.1120000000E+08     0.1000000000E+03
         0.1130000000E+08     0.1000000000E+03
         0.1140000000E+08     0.1000000000E+03
         0.1150000000E+08     0.1000000000E+03
         0.1160000000E+08     0.1000000000E+03
         0.1170000000E+08     0.1000000000E+03
         0.1180000000E+08     0.1000000000E+03
         0.1180000000E+08     0.1000000000E+03
         0.1190000000E+08     0.1000000000E+03
         0.1200000000E+08     0.1000000000E+03
         0.1210000000E+08     0.1000000000E+03
         0.1220000000E+08     0.1000000000E+03
         0.1230000000E+08     0.1000000000E+03
         0.1240000000E+08     0.1000000000E+03
         0.1240000000E+08     0.1000000000E+03
         0.1250000000E+08     0.1000000000E+03
         0.1260000000E+08     0.1000000000E+03
         0.1270000000E+08     0.1000000000E+03
         0.1280000000E+08     0.1000000000E+03
         0.1290000000E+08     0.1000000000E+03
         0.1300000000E+08     0.1000000000E+03
         0.1300000000E+08     0.1000000000E+03
         0.1310000000E+08     0.1000000000E+03
         0.1320000000E+08     0.1000000000E+03
         0.1330000000E+08     0.1000000000E+03
         0.1340000000E+08     0.1000000000E+03
         0.1350000000E+08     0.1000000000E+03
         0.1360000000E+08     0.1000000000E+03
         0.1370000000E+08     0.1000000000E+03
         0.1370000000E+08     0.1000000000E+03
         0.1380000000E+08     0.1000000000E+03
         0.1390000000E+08     0.1000000000E+03
         0.1400000000E+08     0.1000000000E+03
         0.1410000000E+08     0.1000000000E+03
         0.1420000000E+08     0.1000000000E+03
         0.1430000000E+08     0.1000000000E+03
         0.1430000000E+08     0.1000000000E+03
         0.1440000000E+08     0.1000000000E+03
         0.1450000000E+08     0.1000000000E+03
         0.1460000000E+08     0.1000000000E+03
         0.1470000000E+08     0.1000000000E+03
         0.1480000000E+08     0.1000000000E+03
         0.1490000000E+08     0.1000000000E+03
         0.1490000000E+08     0.1000000000E+03
         0.1500000000E+08     0.1000000000E+03
         0.1510000000E+08     0.1000000000E+03
         0.1520000000E+08     0.1000000000E+03
         0.1530000000E+08     0.1000000000E+03
         0.1540000000E+08     0.1000000000E+03
         0.1550000000E+08     0.1000000000E+03
         0.1560000000E+08     0.1000000000E+03
         0.1560000000E+08     0.1000000000E+03
         0.1570000000E+08     0.1000000000E+03
         0.1580000000E+08     0.1000000000E+03
         0.1590000000E+08     0.1000000000E+03
         0.1600000000E+08     0.1000000000E+03
         0.1610000000E+08     0.1000000000E+03
         0.1620000000E+08     0.1000000000E+03
         0.1620000000E+08     0.1000000000E+03
         0.1630000000E+08     0.1000000000E+03
         0.1640000000E+08     0.1000000000E+03
         0.1650000000E+08     0.1000000000E+03
         0.1660000000E+08     0.1000000000E+03
         0.1670000000E+08     0.1000000000E+03
         0.1680000000E+08     0.1000000000E+03
         0.1680000000E+08     0.1000000000E+03
         0.1690000000E+08     0.1000000000E+03
         0.1700000000E+08     0.1000000000E+03
         0.1710000000E+08     0.1000000000E+03
         0.1720000000E+08     0.1000000000E+03
         0.1730000000E+08     0.1000000000E+03
         0.1740000000E+08     0.1000000000E+03
         0.1750000000E+08     0.1000000000E+03
         0.1750000000E+08     0.1000000000E+03
         0.1760000000E+08     0.1000000000E+03
         0.1770000000E+08     0.1000000000E+03
         0.1780000000E+08     0.1000000000E+03
         0.1790000000E+08     0.1000000000E+03
         0.1800000000E+08     0.1000000000E+03
         0.1810000000E+08     0.1000000000E+03
         0.1810000000E+08     0.1000000000E+03
         0.1820000000E+08     0.1000000000E+03
         0.1830000000E+08     0.1000000000E+03
         0.1840000000E+08     0.1000000000E+03
         0.1850000000E+08     0.1000000000E+03
         0.1860000000E+08     0.1000000000E+03
         0.1870000000E+08     0.1000000000E+03
         0.1870000000E+08     0.1000000000E+03
         0.1880000000E+08     0.1000000000E+03
         0.1890000000E+08     0.1000000000E+03
         0.1900000000E+08     0.1000000000E+03
         0.1910000000E+08     0.1000000000E+03
         0.1920000000E+08     0.1000000000E+03
         0.1930000000E+08     0.1000000000E+03
         0.1940000000E+08     0.1000000000E+03
         0.1940000000E+08     0.1000000000E+03
         0.1950000000E+08     0.1000000000E+03
         0.1960000000E+08     0.1000000000E+03
         0.1970000000E+08     0.1000000000E+03
         0.1980000000E+08     0.1000000000E+03
         0.1990000000E+08     0.1000000000E+03
         0.2000000000E+08     0.1000000000E+03
         0.2000000000E+08     0.1000000000E+03
         0.2010000000E+08     0.1000000000E+03
         0.2020000000E+08     0.1000000000E+03
         0.2030000000E+08     0.1000000000E+03
         0.2040000000E+08     0.1000000000E+03
         0.2050000000E+08     0.1000000000E+03
         0.2060000000E+08     0.1000000000E+03
         0.2070000000E+08     0.1000000000E+03
         0.2070000000E+08     0.1000000000E+03
         0.2080000000E+08     0.1000000000E+03
         0.2090000000E+08     0.1000000000E+03
         0.2100000000E+08     0.1000000000E+03
         0.2110000000E+08     0.1000000000E+03
         0.2120000000E+08     0.1000000000E+03
         0.2130000000E+08     0.1000000000E+03
         0.2130000000E+08     0.1000000000E+03
         0.2140000000E+08     0.1000000000E+03
         0.2150000000E+08     0.1000000000E+03
         0.2160000000E+08     0.1000000000E+03
         0.2170000000E+08     0.1000000000E+03
         0.2180000000E+08     0.1000000000E+03
         0.2190000000E+08     0.1000000000E+03
         0.2190000000E+08     0.1000000000E+03
         0.2200000000E+08     0.1000000000E+03
         0.2210000000E+08     0.1000000000E+03
         0.2220000000E+08     0.1000000000E+03
         0.2230000000E+08     0.1000000000E+03
         0.2240000000E+08     0.1000000000E+03
         0.2250000000E+08     0.1000000000E+03
         0.2260000000E+08     0.1000000000E+03
         0.2260000000E+08     0.1000000000E+03
         0.2270000000E+08     0.1000000000E+03
         0.2280000000E+08     0.1000000000E+03
         0.2290000000E+08     0.1000000000E+03
         0.2300000000E+08     0.1000000000E+03
         0.2310000000E+08     0.1000000000E+03
         0.2320000000E+08     0.1000000000E+03
         0.2320000000E+08     0.1000000000E+03
         0.2330000000E+08     0.1000000000E+03
         0.2340000000E+08     0.1000000000E+03
         0.2350000000E+08     0.1000000000E+03
         0.2360000000E+08     0.1000000000E+03
         0.2370000000E+08     0.1000000000E+03
         0.2380000000E+08     0.1000000000E+03
         0.2380000000E+08     0.1000000000E+03
         0.2390000000E+08     0.1000000000E+03
         0.2400000000E+08     0.1000000000E+03
         0.2410000000E+08     0.1000000000E+03
         0.2420000000E+08     0.1000000000E+03
         0.2430000000E+08     0.1000000000E+03
         0.2440000000E+08     0.1000000000E+03
         0.2450000000E+08     0.1000000000E+03
         0.2450000000E+08     0.1000000000E+03
         0.2460000000E+08     0.1000000000E+03
         0.2470000000E+08     0.1000000000E+03
         0.2480000000E+08     0.1000000000E+03
         0.2490000000E+08     0.1000000000E+03
         0.2500000000E+08     0.1000000000E+03
         0.2510000000E+08     0.1000000000E+03
         0.2510000000E+08     0.1000000000E+03
         0.2520000000E+08     0.1000000000E+03
         0.2530000000E+08     0.1000000000E+03
         0.2540000000E+08     0.1000000000E+03
         0.2550000000E+08     0.1000000000E+03
         0.2560000000E+08     0.1000000000E+03
         0.2570000000E+08     0.1000000000E+03
         0.2570000000E+08     0.1000000000E+03
         0.2580000000E+08     0.1000000000E+03
         0.2590000000E+08     0.1000000000E+03
         0.2600000000E+08     0.1000000000E+03
         0.2610000000E+08     0.1000000000E+03
         0.2620000000E+08     0.1000000000E+03
         0.2630000000E+08     0.1000000000E+03
         0.2640000000E+08     0.1000000000E+03
         0.2640000000E+08     0.1000000000E+03
         0.2650000000E+08     0.1000000000E+03
         0.2660000000E+08     0.1000000000E+03
         0.2670000000E+08     0.1000000000E+03
         0.2680000000E+08     0.1000000000E+03
         0.2690000000E+08     0.1000000000E+03
         0.2700000000E+08     0.1000000000E+03
         0.2700000000E+08     0.1000000000E+03
         0.2710000000E+08     0.1000000000E+03
         0.2720000000E+08     0.1000000000E+03
         0.2730000000E+08     0.1000000000E+03
         0.2740000000E+08     0.1000000000E+03
         0.2750000000E+08     0.1000000000E+03
         0.2760000000E+08     0.1000000000E+03
         0.2760000000E+08     0.1000000000E+03
         0.2770000000E+08     0.1000000000E+03
         0.2780000000E+08     0.1000000000E+03
         0.2790000000E+08     0.1000000000E+03
         0.2800000000E+08     0.1000000000E+03
         0.2810000000E+08     0.1000000000E+03
         0.2820000000E+08     0.1000000000E+03
         0.2830000000E+08     0.1000000000E+03
         0.2830000000E+08     0.1000000000E+03
         0.2840000000E+08     0.1000000000E+03
         0.2850000000E+08     0.1000000000E+03
         0.2860000000E+08     0.1000000000E+03
         0.2870000000E+08     0.1000000000E+03
         0.2880000000E+08     0.1000000000E+03
         0.2890000000E+08     0.1000000000E+03
         0.2890000000E+08     0.1000000000E+03
         0.2900000000E+08     0.1000000000E+03
         0.2910000000E+08     0.1000000000E+03
         0.2920000000E+08     0.1000000000E+03
         0.2930000000E+08     0.1000000000E+03
         0.2940000000E+08     0.1000000000E+03
         0.2950000000E+08     0.1000000000E+03
         0.2950000000E+08     0.1000000000E+03
         0.2960000000E+08     0.1000000000E+03
         0.2970000000E+08     0.1000000000E+03
         0.2980000000E+08     0.1000000000E+03
         0.2990000000E+08     0.1000000000E+03
         0.3000000000E+08     0.1000000000E+03
         0.3010000000E+08     0.1000000000E+03
         0.3020000000E+08     0.1000000000E+03
         0.3020000000E+08     0.1000000000E+03
         0.3030000000E+08     0.1000000000E+03
         0.3040000000E+08     0.1000000000E+03
         0.3050000000E+08     0.1000000000E+03
         0.3060000000E+08     0.1000000000E+03
         0.3070000000E+08     0.1000000000E+03
         0.3080000000E+08     0.1000000000E+03
         0.3080000000E+08     0.1000000000E+03
         0.3090000000E+08     0.1000000000E+03
         0.3100000000E+08     0.1000000000E+03
         0.3110000000E+08     0.1000000000E+03
         0.3120000000E+08     0.1000000000E+03
         0.3130000000E+08     0.1000000000E+03
         0.3140000000E+08     0.1000000000E+03
         0.3150000000E+08     0.1000000000E+03
         0.3150000000E+08     0.1000000000E+03
         0.3160000000E+08     0.1000000000E+03
         0.3170000000E+08     0.1000000000E+03
         0.3180000000E+08     0.1000000000E+03
         0.3190000000E+08     0.1000000000E+03
         0.3200000000E+08     0.1000000000E+03
         0.3210000000E+08     0.1000000000E+03
         0.3210000000E+08     0.1000000000E+03
         0.3220000000E+08     0.1000000000E+03
         0.3230000000E+08     0.1000000000E+03
         0.3240000000E+08     0.1000000000E+03
         0.3250000000E+08     0.1000000000E+03
         0.3260000000E+08     0.1000000000E+03
         0.3270000000E+08     0.1000000000E+03
         0.3270000000E+08     0.1000000000E+03
         0.3280000000E+08     0.1000000000E+03
         0.3290000000E+08     0.1000000000E+03
         0.3300000000E+08     0.1000000000E+03
         0.3310000000E+08     0.1000000000E+03
         0.3320000000E+08     0.1000000000E+03
         0.3330000000E+08     0.1000000000E+03
         0.3340000000E+08     0.1000000000E+03
         0.3340000000E+08     0.1000000000E+03
         0.3350000000E+08     0.1000000000E+03
         0.3360000000E+08     0.1000000000E+03
         0.3370000000E+08     0.1000000000E+03
         0.3380000000E+08     0.1000000000E+03
         0.3390000000E+08     0.1000000000E+03
         0.3400000000E+08     0.1000000000E+03
         0.3400000000E+08     0.1000000000E+03
         0.3410000000E+08     0.1000000000E+03
         0.3420000000E+08     0.1000000000E+03
         0.3430000000E+08     0.1000000000E+03
         0.3440000000E+08     0.1000000000E+03
         0.3450000000E+08     0.1000000000E+03
         0.3460000000E+08     0.1000000000E+03
         0.3460000000E+08     0.1000000000E+03
         0.3470000000E+08     0.1000000000E+03
         0.3480000000E+08     0.1000000000E+03
         0.3490000000E+08     0.1000000000E+03
         0.3500000000E+08     0.1000000000E+03
         0.3510000000E+08     0.1000000000E+03
         0.3520000000E+08     0.1000000000E+03
         0.3530000000E+08     0.1000000000E+03
         0.3530000000E+08     0.1000000000E+03
         0.3540000000E+08     0.1000000000E+03
         0.3550000000E+08     0.1000000000E+03
         0.3560000000E+08     0.1000000000E+03
         0.3570000000E+08     0.1000000000E+03
         0.3580000000E+08     0.1000000000E+03
         0.3590000000E+08     0.1000000000E+03
         0.3590000000E+08     0.1000000000E+03
         0.3600000000E+08     0.1000000000E+03
         0.3610000000E+08     0.1000000000E+03
         0.3620000000E+08     0.1000000000E+03
         0.3630000000E+08     0.1000000000E+03
         0.3640000000E+08     0.1000000000E+03
         0.3650000000E+08     0.1000000000E+03
         0.3650000000E+08     0.1000000000E+03
         0.3660000000E+08     0.1000000000E+03
         0.3670000000E+08     0.1000000000E+03
         0.3680000000E+08     0.1000000000E+03
         0.3690000000E+08     0.1000000000E+03
         0.3700000000E+08     0.1000000000E+03
         0.3710000000E+08     0.1000000000E+03
         0.3720000000E+08     0.1000000000E+03
         0.3720000000E+08     0.1000000000E+03
         0.3730000000E+08     0.1000000000E+03
         0.3740000000E+08     0.1000000000E+03
         0.3750000000E+08     0.1000000000E+03
         0.3760000000E+08     0.1000000000E+03
         0.3770000000E+08     0.1000000000E+03
         0.3780000000E+08     0.1000000000E+03
         0.3780000000E+08     0.1000000000E+03
         0.3790000000E+08     0.1000000000E+03
         0.3800000000E+08     0.1000000000E+03
         0.3810000000E+08     0.1000000000E+03
         0.3820000000E+08     0.1000000000E+03
         0.3830000000E+08     0.1000000000E+03
         0.3840000000E+08     0.1000000000E+03
         0.3840000000E+08     0.1000000000E+03
         0.3850000000E+08     0.1000000000E+03
         0.3860000000E+08     0.1000000000E+03
         0.3870000000E+08     0.1000000000E+03
         0.3880000000E+08     0.1000000000E+03
         0.3890000000E+08     0.1000000000E+03
         0.3900000000E+08     0.1000000000E+03
         0.3910000000E+08     0.1000000000E+03
         0.3910000000E+08     0.1000000000E+03
         0.3920000000E+08     0.1000000000E+03
         0.3930000000E+08     0.1000000000E+03
         0.3940000000E+08     0.1000000000E+03
         0.3950000000E+08     0.1000000000E+03
         0.3960000000E+08     0.1000000000E+03
         0.3970000000E+08     0.1000000000E+03
         0.3970000000E+08     0.1000000000E+03
         0.3980000000E+08     0.1000000000E+03
         0.3990000000E+08     0.1000000000E+03
         0.4000000000E+08     0.1000000000E+03
         0.4010000000E+08     0.1000000000E+03
         0.4020000000E+08     0.1000000000E+03
         0.4030000000E+08     0.1000000000E+03
         0.4030000000E+08     0.1000000000E+03
         0.4040000000E+08     0.1000000000E+03
         0.4050000000E+08     0.1000000000E+03
         0.4060000000E+08     0.1000000000E+03
         0.4070000000E+08     0.1000000000E+03
         0.4080000000E+08     0.1000000000E+03
         0.4090000000E+08     0.1000000000E+03
         0.4100000000E+08     0.1000000000E+03
         0.4100000000E+08     0.1000000000E+03
         0.4110000000E+08     0.1000000000E+03
         0.4120000000E+08     0.1000000000E+03
         0.4130000000E+08     0.1000000000E+03
         0.4140000000E+08     0.1000000000E+03
         0.4150000000E+08     0.1000000000E+03
         0.4160000000E+08     0.1000000000E+03
         0.4160000000E+08     0.1000000000E+03
         0.4170000000E+08     0.1000000000E+03
         0.4180000000E+08     0.1000000000E+03
         0.4190000000E+08     0.1000000000E+03
         0.4200000000E+08     0.1000000000E+03
         0.4210000000E+08     0.1000000000E+03
         0.4220000000E+08     0.1000000000E+03
         0.4230000000E+08     0.1000000000E+03
         0.4230000000E+08     0.1000000000E+03
         0.4240000000E+08     0.1000000000E+03
         0.4250000000E+08     0.1000000000E+03
         0.4260000000E+08     0.1000000000E+03
         0.4270000000E+08     0.1000000000E+03
         0.4280000000E+08     0.1000000000E+03
         0.4290000000E+08     0.1000000000E+03
         0.4290000000E+08     0.1000000000E+03
         0.4300000000E+08     0.1000000000E+03
         0.4310000000E+08     0.1000000000E+03
         0.4320000000E+08     0.1000000000E+03
         0.4330000000E+08     0.1000000000E+03
         0.4340000000E+08     0.1000000000E+03
         0.4350000000E+08     0.1000000000E+03
         0.4350000000E+08     0.1000000000E+03
         0.4360000000E+08     0.1000000000E+03
         0.4370000000E+08     0.1000000000E+03
         0.4380000000E+08     0.1000000000E+03
         0.4390000000E+08     0.1000000000E+03
         0.4400000000E+08     0.1000000000E+03
         0.4410000000E+08     0.1000000000E+03
         0.4420000000E+08     0.1000000000E+03
         0.4420000000E+08     0.1000000000E+03
         0.4430000000E+08     0.1000000000E+03
         0.4440000000E+08     0.1000000000E+03
         0.4450000000E+08     0.1000000000E+03
         0.4460000000E+08     0.1000000000E+03
         0.4470000000E+08     0.1000000000E+03
         0.4480000000E+08     0.1000000000E+03
         0.4480000000E+08     0.1000000000E+03
         0.4490000000E+08     0.1000000000E+03
         0.4500000000E+08     0.1000000000E+03
         0.4510000000E+08     0.1000000000E+03
         0.4520000000E+08     0.1000000000E+03
         0.4530000000E+08     0.1000000000E+03
         0.4540000000E+08     0.1000000000E+03
         0.4540000000E+08     0.1000000000E+03
         0.4550000000E+08     0.1000000000E+03
         0.4560000000E+08     0.1000000000E+03
         0.4570000000E+08     0.1000000000E+03
         0.4580000000E+08     0.1000000000E+03
         0.4590000000E+08     0.1000000000E+03
         0.4600000000E+08     0.1000000000E+03
         0.4610000000E+08     0.1000000000E+03
         0.4610000000E+08     0.1000000000E+03
         0.4620000000E+08     0.1000000000E+03
         0.4630000000E+08     0.1000000000E+03
         0.4640000000E+08     0.1000000000E+03
         0.4650000000E+08     0.1000000000E+03
         0.4660000000E+08     0.1000000000E+03
         0.4670000000E+08     0.1000000000E+03
         0.4670000000E+08     0.1000000000E+03
         0.4680000000E+08     0.1000000000E+03
         0.4690000000E+08     0.1000000000E+03
         0.4700000000E+08     0.1000000000E+03
         0.4710000000E+08     0.1000000000E+03
         0.4720000000E+08     0.1000000000E+03
         0.4730000000E+08     0.1000000000E+03
         0.4730000000E+08     0.1000000000E+03
         0.4740000000E+08     0.1000000000E+03
         0.4750000000E+08     0.1000000000E+03
         0.4760000000E+08     0.1000000000E+03
         0.4770000000E+08     0.1000000000E+03
         0.4780000000E+08     0.1000000000E+03
         0.4790000000E+08     0.1000000000E+03
         0.4800000000E+08     0.1000000000E+03
         0.4800000000E+08     0.1000000000E+03
         0.4810000000E+08     0.1000000000E+03
         0.4820000000E+08     0.1000000000E+03
         0.4830000000E+08     0.1000000000E+03
         0.4840000000E+08     0.1000000000E+03
         0.4850000000E+08     0.1000000000E+03
         0.4860000000E+08     0.1000000000E+03
         0.4860000000E+08     0.1000000000E+03
         0.4870000000E+08     0.1000000000E+03
         0.4880000000E+08     0.1000000000E+03
         0.4890000000E+08     0.1000000000E+03
         0.4900000000E+08     0.1000000000E+03
         0.4910000000E+08     0.1000000000E+03
         0.4920000000E+08     0.1000000000E+03
         0.4920000000E+08     0.1000000000E+03
         0.4930000000E+08     0.1000000000E+03
         0.4940000000E+08     0.1000000000E+03
         0.4950000000E+08     0.1000000000E+03
         0.4960000000E+08     0.1000000000E+03
         0.4970000000E+08     0.1000000000E+03
         0.4980000000E+08     0.1000000000E+03
         0.4990000000E+08     0.1000000000E+03
         0.4990000000E+08     0.1000000000E+03
         0.5000000000E+08     0.1000000000E+03
         0.5010000000E+08     0.1000000000E+03
         0.5020000000E+08     0.1000000000E+03
         0.5030000000E+08     0.1000000000E+03
         0.5040000000E+08     0.1000000000E+03
         0.5050000000E+08     0.1000000000E+03
         0.5050000000E+08     0.1000000000E+03
         0.5060000000E+08     0.1000000000E+03
         0.5070000000E+08     0.1000000000E+03
         0.5080000000E+08     0.1000000000E+03
         0.5090000000E+08     0.1000000000E+03
         0.5100000000E+08     0.1000000000E+03
         0.5110000000E+08     0.1000000000E+03
         0.5110000000E+08     0.1000000000E+03
         0.5120000000E+08     0.1000000000E+03
         0.5130000000E+08     0.1000000000E+03
         0.5140000000E+08     0.1000000000E+03
         0.5150000000E+08     0.1000000000E+03
         0.5160000000E+08     0.1000000000E+03
         0.5170000000E+08     0.1000000000E+03
         0.5180000000E+08     0.1000000000E+03
         0.5180000000E+08     0.1000000000E+03
         0.5190000000E+08     0.1000000000E+03
         0.5200000000E+08     0.1000000000E+03
         0.5210000000E+08     0.1000000000E+03
         0.5220000000E+08     0.1000000000E+03
         0.5230000000E+08     0.1000000000E+03
         0.5240000000E+08     0.1000000000E+03
         0.5240000000E+08     0.1000000000E+03
         0.5250000000E+08     0.1000000000E+03
         0.5260000000E+08     0.1000000000E+03
         0.5270000000E+08     0.1000000000E+03
         0.5280000000E+08     0.1000000000E+03
         0.5290000000E+08     0.1000000000E+03
         0.5300000000E+08     0.1000000000E+03
         0.5310000000E+08     0.1000000000E+03
         0.5310000000E+08     0.1000000000E+03
         0.5320000000E+08     0.1000000000E+03
         0.5330000000E+08     0.1000000000E+03
         0.5340000000E+08     0.1000000000E+03
         0.5350000000E+08     0.1000000000E+03
         0.5360000000E+08     0.1000000000E+03
         0.5370000000E+08     0.1000000000E+03
         0.5370000000E+08     0.1000000000E+03
         0.5380000000E+08     0.1000000000E+03
         0.5390000000E+08     0.1000000000E+03
         0.5400000000E+08     0.1000000000E+03
         0.5410000000E+08     0.1000000000E+03
         0.5420000000E+08     0.1000000000E+03
         0.5430000000E+08     0.1000000000E+03
         0.5430000000E+08     0.1000000000E+03
         0.5440000000E+08     0.1000000000E+03
         0.5450000000E+08     0.1000000000E+03
         0.5460000000E+08     0.1000000000E+03
         0.5470000000E+08     0.1000000000E+03
         0.5480000000E+08     0.1000000000E+03
         0.5490000000E+08     0.1000000000E+03
         0.5500000000E+08     0.1000000000E+03
         0.5500000000E+08     0.1000000000E+03
         0.5510000000E+08     0.1000000000E+03
         0.5520000000E+08     0.1000000000E+03
         0.5530000000E+08     0.1000000000E+03
         0.5540000000E+08     0.1000000000E+03
         0.5550000000E+08     0.1000000000E+03
         0.5560000000E+08     0.1000000000E+03
         0.5560000000E+08     0.1000000000E+03
         0.5570000000E+08     0.1000000000E+03
         0.5580000000E+08     0.1000000000E+03
         0.5590000000E+08     0.1000000000E+03
         0.5600000000E+08     0.1000000000E+03
         0.5610000000E+08     0.1000000000E+03
         0.5620000000E+08     0.1000000000E+03
         0.5620000000E+08     0.1000000000E+03
         0.5630000000E+08     0.1000000000E+03
         0.5640000000E+08     0.1000000000E+03
         0.5650000000E+08     0.1000000000E+03
         0.5660000000E+08     0.1000000000E+03
         0.5670000000E+08     0.1000000000E+03
         0.5680000000E+08     0.1000000000E+03
         0.5690000000E+08     0.1000000000E+03
         0.5690000000E+08     0.1000000000E+03
         0.5700000000E+08     0.1000000000E+03
         0.5710000000E+08     0.1000000000E+03
         0.5720000000E+08     0.1000000000E+03
         0.5730000000E+08     0.1000000000E+03
         0.5740000000E+08     0.1000000000E+03
         0.5750000000E+08     0.1000000000E+03
         0.5750000000E+08     0.1000000000E+03
         0.5760000000E+08     0.1000000000E+03
         0.5770000000E+08     0.1000000000E+03
         0.5780000000E+08     0.1000000000E+03
         0.5790000000E+08     0.1000000000E+03
         0.5800000000E+08     0.1000000000E+03
         0.5810000000E+08     0.1000000000E+03
         0.5810000000E+08     0.1000000000E+03
         0.5820000000E+08     0.1000000000E+03
         0.5830000000E+08     0.1000000000E+03
         0.5840000000E+08     0.1000000000E+03
         0.5850000000E+08     0.1000000000E+03
         0.5860000000E+08     0.1000000000E+03
         0.5870000000E+08     0.1000000000E+03
         0.5880000000E+08     0.1000000000E+03
         0.5880000000E+08     0.1000000000E+03
         0.5890000000E+08     0.1000000000E+03
         0.5900000000E+08     0.1000000000E+03
         0.5910000000E+08     0.1000000000E+03
         0.5920000000E+08     0.1000000000E+03
         0.5930000000E+08     0.1000000000E+03
         0.5940000000E+08     0.1000000000E+03
         0.5940000000E+08     0.1000000000E+03
         0.5950000000E+08     0.1000000000E+03
         0.5960000000E+08     0.1000000000E+03
         0.5970000000E+08     0.1000000000E+03
         0.5980000000E+08     0.1000000000E+03
         0.5990000000E+08     0.1000000000E+03
         0.6000000000E+08     0.1000000000E+03
         0.6000000000E+08     0.1000000000E+03
         0.6010000000E+08     0.1000000000E+03
         0.6020000000E+08     0.1000000000E+03
         0.6030000000E+08     0.1000000000E+03
         0.6040000000E+08     0.1000000000E+03
         0.6050000000E+08     0.1000000000E+03
         0.6060000000E+08     0.1000000000E+03
         0.6070000000E+08     0.1000000000E+03
         0.6070000000E+08     0.1000000000E+03
         0.6080000000E+08     0.1000000000E+03
         0.6090000000E+08     0.1000000000E+03
         0.6100000000E+08     0.1000000000E+03
         0.6110000000E+08     0.1000000000E+03
         0.6120000000E+08     0.1000000000E+03
         0.6130000000E+08     0.1000000000E+03
         0.6130000000E+08     0.1000000000E+03
         0.6140000000E+08     0.1000000000E+03
         0.6150000000E+08     0.1000000000E+03
         0.6160000000E+08     0.1000000000E+03
         0.6170000000E+08     0.1000000000E+03
         0.6180000000E+08     0.1000000000E+03
         0.6190000000E+08     0.1000000000E+03
         0.6190000000E+08     0.1000000000E+03
         0.6200000000E+08     0.1000000000E+03
         0.6210000000E+08     0.1000000000E+03
         0.6220000000E+08     0.1000000000E+03
         0.6230000000E+08     0.1000000000E+03
         0.6240000000E+08     0.1000000000E+03
         0.6250000000E+08     0.1000000000E+03
         0.6260000000E+08     0.1000000000E+03
         0.6260000000E+08     0.1000000000E+03
         0.6270000000E+08     0.1000000000E+03
         0.6280000000E+08     0.1000000000E+03
         0.6290000000E+08     0.1000000000E+03
         0.6300000000E+08     0.1000000000E+03
         0.6310000000E+08     0.1000000000E+03
         0.6320000000E+08     0.1000000000E+03
         0.6320000000E+08     0.1000000000E+03
         0.6330000000E+08     0.1000000000E+03
         0.6340000000E+08     0.1000000000E+03
         0.6350000000E+08     0.1000000000E+03
         0.6360000000E+08     0.1000000000E+03
         0.6370000000E+08     0.1000000000E+03
         0.6380000000E+08     0.1000000000E+03
         0.6390000000E+08     0.1000000000E+03
         0.6390000000E+08     0.1000000000E+03
         0.6400000000E+08     0.1000000000E+03
         0.6410000000E+08     0.1000000000E+03
         0.6420000000E+08     0.1000000000E+03
         0.6430000000E+08     0.1000000000E+03
         0.6440000000E+08     0.1000000000E+03
         0.6450000000E+08     0.1000000000E+03
         0.6450000000E+08     0.1000000000E+03
         0.6460000000E+08     0.1000000000E+03
         0.6470000000E+08     0.1000000000E+03
         0.6480000000E+08     0.1000000000E+03
         0.6490000000E+08     0.1000000000E+03
         0.6500000000E+08     0.1000000000E+03
         0.6510000000E+08     0.1000000000E+03
         0.6510000000E+08     0.1000000000E+03
         0.6520000000E+08     0.1000000000E+03
         0.6530000000E+08     0.1000000000E+03
         0.6540000000E+08     0.1000000000E+03
         0.6550000000E+08     0.1000000000E+03
         0.6560000000E+08     0.1000000000E+03
         0.6570000000E+08     0.1000000000E+03
         0.6580000000E+08     0.1000000000E+03
         0.6590000000E+08     0.1000000000E+03
         0.6600000000E+08     0.1000000000E+03
         0.6610000000E+08     0.1000000000E+03
         0.6610000000E+08     0.1000000000E+03
         0.6620000000E+08     0.1000000000E+03
         0.6630000000E+08     0.1000000000E+03
         0.6640000000E+08     0.1000000000E+03
         0.6650000000E+08     0.1000000000E+03
         0.6660000000E+08     0.1000000000E+03
         0.6670000000E+08     0.1000000000E+03
         0.6670000000E+08     0.1000000000E+03
         0.6680000000E+08     0.1000000000E+03
         0.6690000000E+08     0.1000000000E+03
         0.6700000000E+08     0.1000000000E+03
         0.6710000000E+08     0.1000000000E+03
         0.6720000000E+08     0.1000000000E+03
         0.6730000000E+08     0.1000000000E+03
         0.6730000000E+08     0.1000000000E+03
         0.6740000000E+08     0.1000000000E+03
         0.6750000000E+08     0.1000000000E+03
         0.6760000000E+08     0.1000000000E+03
         0.6770000000E+08     0.1000000000E+03
         0.6780000000E+08     0.1000000000E+03
         0.6790000000E+08     0.1000000000E+03
         0.6800000000E+08     0.1000000000E+03
         0.6810000000E+08     0.1000000000E+03
         0.6820000000E+08     0.1000000000E+03
         0.6830000000E+08     0.1000000000E+03
         0.6830000000E+08     0.1000000000E+03
         0.6840000000E+08     0.1000000000E+03
         0.6850000000E+08     0.1000000000E+03
         0.6860000000E+08     0.1000000000E+03
         0.6870000000E+08     0.1000000000E+03
         0.6880000000E+08     0.1000000000E+03
         0.6890000000E+08     0.1000000000E+03
         0.6890000000E+08     0.1000000000E+03
         0.6900000000E+08     0.1000000000E+03
         0.6910000000E+08     0.1000000000E+03
         0.6920000000E+08     0.1000000000E+03
         0.6930000000E+08     0.1000000000E+03
         0.6940000000E+08     0.1000000000E+03
         0.6950000000E+08     0.1000000000E+03
         0.6950000000E+08     0.1000000000E+03
         0.6960000000E+08     0.1000000000E+03
         0.6970000000E+08     0.1000000000E+03
         0.6980000000E+08     0.1000000000E+03
         0.6990000000E+08     0.1000000000E+03
         0.7000000000E+08     0.1000000000E+03
         0.7010000000E+08     0.1000000000E+03
         0.7020000000E+08     0.1000000000E+03
         0.7030000000E+08     0.1000000000E+03
         0.7040000000E+08     0.1000000000E+03
         0.7050000000E+08     0.1000000000E+03
         0.7050000000E+08     0.1000000000E+03
         0.7060000000E+08     0.1000000000E+03
         0.7070000000E+08     0.1000000000E+03
         0.7080000000E+08     0.1000000000E+03
         0.7090000000E+08     0.1000000000E+03
         0.7100000000E+08     0.1000000000E+03
         0.7110000000E+08     0.1000000000E+03
         0.7110000000E+08     0.1000000000E+03
         0.7120000000E+08     0.1000000000E+03
         0.7130000000E+08     0.1000000000E+03
         0.7140000000E+08     0.1000000000E+03
         0.7150000000E+08     0.1000000000E+03
         0.7160000000E+08     0.1000000000E+03
         0.7170000000E+08     0.1000000000E+03
         0.7170000000E+08     0.1000000000E+03
         0.7180000000E+08     0.1000000000E+03
         0.7190000000E+08     0.1000000000E+03
         0.7200000000E+08     0.1000000000E+03
         0.7210000000E+08     0.1000000000E+03
         0.7220000000E+08     0.1000000000E+03
         0.7230000000E+08     0.1000000000E+03
         0.7240000000E+08     0.1000000000E+03
         0.7250000000E+08     0.1000000000E+03
         0.7260000000E+08     0.1000000000E+03
         0.7270000000E+08     0.1000000000E+03
         0.7270000000E+08     0.1000000000E+03
         0.7280000000E+08     0.1000000000E+03
         0.7290000000E+08     0.1000000000E+03
         0.7300000000E+08     0.1000000000E+03
         0.7310000000E+08     0.1000000000E+03
         0.7320000000E+08     0.1000000000E+03
         0.7330000000E+08     0.1000000000E+03
         0.7330000000E+08     0.1000000000E+03
         0.7340000000E+08     0.1000000000E+03
         0.7350000000E+08     0.1000000000E+03
         0.7360000000E+08     0.1000000000E+03
         0.7370000000E+08     0.1000000000E+03
         0.7380000000E+08     0.1000000000E+03
         0.7390000000E+08     0.1000000000E+03
         0.7390000000E+08     0.1000000000E+03
         0.7400000000E+08     0.1000000000E+03
         0.7410000000E+08     0.1000000000E+03
         0.7420000000E+08     0.1000000000E+03
         0.7430000000E+08     0.1000000000E+03
         0.7440000000E+08     0.1000000000E+03
         0.7450000000E+08     0.1000000000E+03
         0.7460000000E+08     0.1000000000E+03
         0.7470000000E+08     0.1000000000E+03
         0.7480000000E+08     0.1000000000E+03
         0.7490000000E+08     0.1000000000E+03
         0.7490000000E+08     0.1000000000E+03
         0.7500000000E+08     0.1000000000E+03
         0.7510000000E+08     0.1000000000E+03
         0.7520000000E+08     0.1000000000E+03
         0.7530000000E+08     0.1000000000E+03
         0.7540000000E+08     0.1000000000E+03
         0.7550000000E+08     0.1000000000E+03
         0.7550000000E+08     0.1000000000E+03
         0.7560000000E+08     0.1000000000E+03
         0.7570000000E+08     0.1000000000E+03
         0.7580000000E+08     0.1000000000E+03
         0.7590000000E+08     0.1000000000E+03
         0.7600000000E+08     0.1000000000E+03
         0.7610000000E+08     0.1000000000E+03
         0.7610000000E+08     0.1000000000E+03
         0.7620000000E+08     0.1000000000E+03
         0.7630000000E+08     0.1000000000E+03
         0.7640000000E+08     0.1000000000E+03
         0.7650000000E+08     0.1000000000E+03
         0.7660000000E+08     0.1000000000E+03
         0.7670000000E+08     0.1000000000E+03
         0.7680000000E+08     0.1000000000E+03
         0.7690000000E+08     0.1000000000E+03
         0.7700000000E+08     0.1000000000E+03
         0.7710000000E+08     0.1000000000E+03
         0.7710000000E+08     0.1000000000E+03
         0.7720000000E+08     0.1000000000E+03
         0.7730000000E+08     0.1000000000E+03
         0.7740000000E+08     0.1000000000E+03
         0.7750000000E+08     0.1000000000E+03
         0.7760000000E+08     0.1000000000E+03
         0.7770000000E+08     0.1000000000E+03
         0.7770000000E+08     0.1000000000E+03
         0.7780000000E+08     0.1000000000E+03
         0.7790000000E+08     0.1000000000E+03
         0.7800000000E+08     0.1000000000E+03
         0.7810000000E+08     0.1000000000E+03
         0.7820000000E+08     0.1000000000E+03
         0.7830000000E+08     0.1000000000E+03
         0.7830000000E+08     0.1000000000E+03
         0.7840000000E+08     0.1000000000E+03
         0.7850000000E+08     0.1000000000E+03
         0.7860000000E+08     0.1000000000E+03
         0.7870000000E+08     0.1000000000E+03
         0.7880000000E+08     0.1000000000E+03
         0.7890000000E+08     0.1000000000E+03
         0.7900000000E+08     0.1000000000E+03
         0.7910000000E+08     0.1000000000E+03
         0.7920000000E+08     0.1000000000E+03
         0.7930000000E+08     0.1000000000E+03
         0.7930000000E+08     0.1000000000E+03
         0.7940000000E+08     0.1000000000E+03
         0.7950000000E+08     0.1000000000E+03
         0.7960000000E+08     0.1000000000E+03
         0.7970000000E+08     0.1000000000E+03
         0.7980000000E+08     0.1000000000E+03
         0.7990000000E+08     0.1000000000E+03
         0.7990000000E+08     0.1000000000E+03
         0.8000000000E+08     0.1000000000E+03
         0.8010000000E+08     0.1000000000E+03
         0.8020000000E+08     0.1000000000E+03
         0.8030000000E+08     0.1000000000E+03
         0.8040000000E+08     0.1000000000E+03
         0.8050000000E+08     0.1000000000E+03
         0.8050000000E+08     0.1000000000E+03
         0.8060000000E+08     0.1000000000E+03
         0.8070000000E+08     0.1000000000E+03
         0.8080000000E+08     0.1000000000E+03
         0.8090000000E+08     0.1000000000E+03
         0.8100000000E+08     0.1000000000E+03
         0.8110000000E+08     0.1000000000E+03
         0.8120000000E+08     0.1000000000E+03
         0.8130000000E+08     0.1000000000E+03
         0.8140000000E+08     0.1000000000E+03
         0.8150000000E+08     0.1000000000E+03
         0.8150000000E+08     0.1000000000E+03
         0.8160000000E+08     0.1000000000E+03
         0.8170000000E+08     0.1000000000E+03
         0.8180000000E+08     0.1000000000E+03
         0.8190000000E+08     0.1000000000E+03
         0.8200000000E+08     0.1000000000E+03
         0.8210000000E+08     0.1000000000E+03
         0.8210000000E+08     0.1000000000E+03
         0.8220000000E+08     0.1000000000E+03
         0.8230000000E+08     0.1000000000E+03
         0.8240000000E+08     0.1000000000E+03
         0.8250000000E+08     0.1000000000E+03
         0.8260000000E+08     0.1000000000E+03
         0.8270000000E+08     0.1000000000E+03
         0.8270000000E+08     0.1000000000E+03
         0.8280000000E+08     0.1000000000E+03
         0.8290000000E+08     0.1000000000E+03
         0.8300000000E+08     0.1000000000E+03
         0.8310000000E+08     0.1000000000E+03
         0.8320000000E+08     0.1000000000E+03
         0.8330000000E+08     0.1000000000E+03
         0.8340000000E+08     0.1000000000E+03
         0.8350000000E+08     0.1000000000E+03
         0.8360000000E+08     0.1000000000E+03
         0.8370000000E+08     0.1000000000E+03
         0.8370000000E+08     0.1000000000E+03
         0.8380000000E+08     0.1000000000E+03
         0.8390000000E+08     0.1000000000E+03
         0.8400000000E+08     0.1000000000E+03
         0.8410000000E+08     0.1000000000E+03
         0.8420000000E+08     0.1000000000E+03
         0.8430000000E+08     0.1000000000E+03
         0.8430000000E+08     0.1000000000E+03
         0.8440000000E+08     0.1000000000E+03
         0.8450000000E+08     0.1000000000E+03
         0.8460000000E+08     0.1000000000E+03
         0.8470000000E+08     0.1000000000E+03
         0.8480000000E+08     0.1000000000E+03
         0.8490000000E+08     0.1000000000E+03
         0.8490000000E+08     0.1000000000E+03
         0.8500000000E+08     0.1000000000E+03
         0.8510000000E+08     0.1000000000E+03
         0.8520000000E+08     0.1000000000E+03
         0.8530000000E+08     0.1000000000E+03
         0.8540000000E+08     0.1000000000E+03
         0.8550000000E+08     0.1000000000E+03
         0.8560000000E+08     0.1000000000E+03
         0.8570000000E+08     0.1000000000E+03
         0.8580000000E+08     0.1000000000E+03
         0.8590000000E+08     0.1000000000E+03
         0.8590000000E+08     0.1000000000E+03
         0.8600000000E+08     0.1000000000E+03
         0.8610000000E+08     0.1000000000E+03
         0.8620000000E+08     0.1000000000E+03
         0.8630000000E+08     0.1000000000E+03
         0.8640000000E+08     0.1000000000E+03
         0.8650000000E+08     0.1000000000E+03
         0.8650000000E+08     0.1000000000E+03
         0.8660000000E+08     0.1000000000E+03
         0.8670000000E+08     0.1000000000E+03
         0.8680000000E+08     0.1000000000E+03
         0.8690000000E+08     0.1000000000E+03
         0.8700000000E+08     0.1000000000E+03
         0.8710000000E+08     0.1000000000E+03
         0.8710000000E+08     0.1000000000E+03
         0.8720000000E+08     0.1000000000E+03
         0.8730000000E+08     0.1000000000E+03
         0.8740000000E+08     0.1000000000E+03
         0.8750000000E+08     0.1000000000E+03
         0.8760000000E+08     0.1000000000E+03
         0.8770000000E+08     0.1000000000E+03
         0.8780000000E+08     0.1000000000E+03
         0.8790000000E+08     0.1000000000E+03
         0.8800000000E+08     0.1000000000E+03
         0.8810000000E+08     0.1000000000E+03
         0.8810000000E+08     0.1000000000E+03
         0.8820000000E+08     0.1000000000E+03
         0.8830000000E+08     0.1000000000E+03
         0.8840000000E+08     0.1000000000E+03
         0.8850000000E+08     0.1000000000E+03
         0.8860000000E+08     0.1000000000E+03
         0.8870000000E+08     0.1000000000E+03
         0.8870000000E+08     0.1000000000E+03
         0.8880000000E+08     0.1000000000E+03
         0.8890000000E+08     0.1000000000E+03
         0.8900000000E+08     0.1000000000E+03
         0.8910000000E+08     0.1000000000E+03
         0.8920000000E+08     0.1000000000E+03
         0.8930000000E+08     0.1000000000E+03
         0.8930000000E+08     0.1000000000E+03
         0.8940000000E+08     0.1000000000E+03
         0.8950000000E+08     0.1000000000E+03
         0.8960000000E+08     0.1000000000E+03
         0.8970000000E+08     0.1000000000E+03
         0.8980000000E+08     0.1000000000E+03
         0.8990000000E+08     0.1000000000E+03
         0.9000000000E+08     0.1000000000E+03
         0.9010000000E+08     0.1000000000E+03
         0.9020000000E+08     0.1000000000E+03
         0.9030000000E+08     0.1000000000E+03
         0.9030000000E+08     0.1000000000E+03
         0.9040000000E+08     0.1000000000E+03
         0.9050000000E+08     0.1000000000E+03
         0.9060000000E+08     0.1000000000E+03
         0.9070000000E+08     0.1000000000E+03
         0.9080000000E+08     0.1000000000E+03
         0.9090000000E+08     0.1000000000E+03
         0.9090000000E+08     0.1000000000E+03
         0.9100000000E+08     0.1000000000E+03
         0.9110000000E+08     0.1000000000E+03
         0.9120000000E+08     0.1000000000E+03
         0.9130000000E+08     0.1000000000E+03
         0.9140000000E+08     0.1000000000E+03
         0.9150000000E+08     0.1000000000E+03
         0.9150000000E+08     0.1000000000E+03
         0.9160000000E+08     0.1000000000E+03
         0.9170000000E+08     0.1000000000E+03
         0.9180000000E+08     0.1000000000E+03
         0.9190000000E+08     0.1000000000E+03
         0.9200000000E+08     0.1000000000E+03
         0.9210000000E+08     0.1000000000E+03
         0.9220000000E+08     0.1000000000E+03
         0.9230000000E+08     0.1000000000E+03
         0.9240000000E+08     0.1000000000E+03
         0.9250000000E+08     0.1000000000E+03
         0.9250000000E+08     0.1000000000E+03
         0.9260000000E+08     0.1000000000E+03
         0.9270000000E+08     0.1000000000E+03
         0.9280000000E+08     0.1000000000E+03
         0.9290000000E+08     0.1000000000E+03
         0.9300000000E+08     0.1000000000E+03
         0.9310000000E+08     0.1000000000E+03
         0.9310000000E+08     0.1000000000E+03
         0.9320000000E+08     0.1000000000E+03
         0.9330000000E+08     0.1000000000E+03
         0.9340000000E+08     0.1000000000E+03
         0.9350000000E+08     0.1000000000E+03
         0.9360000000E+08     0.1000000000E+03
         0.9370000000E+08     0.1000000000E+03
         0.9370000000E+08     0.1000000000E+03
         0.9380000000E+08     0.1000000000E+03
         0.9390000000E+08     0.1000000000E+03
         0.9400000000E+08     0.1000000000E+03
         0.9410000000E+08     0.1000000000E+03
         0.9420000000E+08     0.1000000000E+03
         0.9430000000E+08     0.1000000000E+03
         0.9440000000E+08     0.1000000000E+03
         0.9450000000E+08     0.1000000000E+03
         0.9460000000E+08     0.1000000000E+03
         0.9470000000E+08     0.1000000000E+03
         0.9470000000E+08     0.1000000000E+03
         0.9480000000E+08     0.1000000000E+03
         0.9490000000E+08     0.1000000000E+03
         0.9500000000E+08     0.1000000000E+03
         0.9510000000E+08     0.1000000000E+03
         0.9520000000E+08     0.1000000000E+03
         0.9530000000E+08     0.1000000000E+03
         0.9530000000E+08     0.1000000000E+03
         0.9540000000E+08     0.1000000000E+03
         0.9550000000E+08     0.1000000000E+03
         0.9560000000E+08     0.1000000000E+03
         0.9570000000E+08     0.1000000000E+03
         0.9580000000E+08     0.1000000000E+03
         0.9590000000E+08     0.1000000000E+03
         0.9590000000E+08     0.1000000000E+03
         0.9600000000E+08     0.1000000000E+03
         0.9610000000E+08     0.1000000000E+03
         0.9620000000E+08     0.1000000000E+03
         0.9630000000E+08     0.1000000000E+03
         0.9640000000E+08     0.1000000000E+03
         0.9650000000E+08     0.1000000000E+03
         0.9660000000E+08     0.1000000000E+03
         0.9670000000E+08     0.1000000000E+03
         0.9680000000E+08     0.1000000000E+03
         0.9690000000E+08     0.1000000000E+03
         0.9690000000E+08     0.1000000000E+03
         0.9700000000E+08     0.1000000000E+03
         0.9710000000E+08     0.1000000000E+03
         0.9720000000E+08     0.1000000000E+03
         0.9730000000E+08     0.1000000000E+03
         0.9740000000E+08     0.1000000000E+03
         0.9750000000E+08     0.1000000000E+03
         0.9750000000E+08     0.1000000000E+03
         0.9760000000E+08     0.1000000000E+03
         0.9770000000E+08     0.1000000000E+03
         0.9780000000E+08     0.1000000000E+03
         0.9790000000E+08     0.1000000000E+03
         0.9800000000E+08     0.1000000000E+03
         0.9810000000E+08     0.1000000000E+03
         0.9810000000E+08     0.1000000000E+03
         0.9820000000E+08     0.1000000000E+03
         0.9830000000E+08     0.1000000000E+03
         0.9840000000E+08     0.1000000000E+03
         0.9850000000E+08     0.1000000000E+03
         0.9860000000E+08     0.1000000000E+03
         0.9870000000E+08     0.1000000000E+03
         0.9880000000E+08     0.1000000000E+03
         0.9890000000E+08     0.1000000000E+03
         0.9900000000E+08     0.1000000000E+03
         0.9910000000E+08     0.1000000000E+03
         0.9910000000E+08     0.1000000000E+03
         0.9920000000E+08     0.1000000000E+03
         0.9930000000E+08     0.1000000000E+03
         0.9940000000E+08     0.1000000000E+03
         0.9950000000E+08     0.1000000000E+03
         0.9960000000E+08     0.1000000000E+03
         0.9970000000E+08     0.1000000000E+03
         0.9970000000E+08     0.1000000000E+03
         0.9980000000E+08     0.1000000000E+03
         0.9990000000E+08     0.1000000000E+03
         0.1000000000E+09     0.1000000000E+03
         0.1001000000E+09     0.1000000000E+03
         0.1002000000E+09     0.1000000000E+03
         0.1003000000E+09     0.1000000000E+03
         0.1003000000E+09     0.1000000000E+03
         0.1004000000E+09     0.1000000000E+03
         0.1005000000E+09     0.1000000000E+03
         0.1006000000E+09     0.1000000000E+03
         0.1007000000E+09     0.1000000000E+03
         0.1008000000E+09     0.1000000000E+03
         0.1009000000E+09     0.1000000000E+03
         0.1010000000E+09     0.1000000000E+03
         0.1011000000E+09     0.1000000000E+03
         0.1012000000E+09     0.1000000000E+03
         0.1013000000E+09     0.1000000000E+03
         0.1013000000E+09     0.1000000000E+03
         0.1014000000E+09     0.1000000000E+03
         0.1015000000E+09     0.1000000000E+03
         0.1016000000E+09     0.1000000000E+03
         0.1017000000E+09     0.1000000000E+03
         0.1018000000E+09     0.1000000000E+03
         0.1019000000E+09     0.1000000000E+03
         0.1019000000E+09     0.1000000000E+03
         0.1020000000E+09     0.1000000000E+03
         0.1021000000E+09     0.1000000000E+03
         0.1022000000E+09     0.1000000000E+03
         0.1023000000E+09     0.1000000000E+03
         0.1024000000E+09     0.1000000000E+03
         0.1025000000E+09     0.1000000000E+03
         0.1025000000E+09     0.1000000000E+03
         0.1026000000E+09     0.1000000000E+03
         0.1027000000E+09     0.1000000000E+03
         0.1028000000E+09     0.1000000000E+03
         0.1029000000E+09     0.1000000000E+03
         0.1030000000E+09     0.1000000000E+03
         0.1031000000E+09     0.1000000000E+03
         0.1032000000E+09     0.1000000000E+03
         0.1033000000E+09     0.1000000000E+03
         0.1034000000E+09     0.1000000000E+03
         0.1035000000E+09     0.1000000000E+03
         0.1035000000E+09     0.1000000000E+03
         0.1036000000E+09     0.1000000000E+03
         0.1037000000E+09     0.1000000000E+03
         0.1038000000E+09     0.1000000000E+03
         0.1039000000E+09     0.1000000000E+03
         0.1040000000E+09     0.1000000000E+03
         0.1041000000E+09     0.1000000000E+03
         0.1041000000E+09     0.1000000000E+03
         0.1042000000E+09     0.1000000000E+03
         0.1043000000E+09     0.1000000000E+03
         0.1044000000E+09     0.1000000000E+03
         0.1045000000E+09     0.1000000000E+03
         0.1046000000E+09     0.1000000000E+03
         0.1047000000E+09     0.1000000000E+03
         0.1047000000E+09     0.1000000000E+03
         0.1048000000E+09     0.1000000000E+03
         0.1049000000E+09     0.1000000000E+03
         0.1050000000E+09     0.1000000000E+03
         0.1051000000E+09     0.1000000000E+03
         0.1052000000E+09     0.1000000000E+03
         0.1053000000E+09     0.1000000000E+03
         0.1054000000E+09     0.1000000000E+03
         0.1055000000E+09     0.1000000000E+03
         0.1056000000E+09     0.1000000000E+03
         0.1057000000E+09     0.1000000000E+03
         0.1057000000E+09     0.1000000000E+03
         0.1058000000E+09     0.1000000000E+03
         0.1059000000E+09     0.1000000000E+03
         0.1060000000E+09     0.1000000000E+03
         0.1061000000E+09     0.1000000000E+03
         0.1062000000E+09     0.1000000000E+03
         0.1063000000E+09     0.1000000000E+03
         0.1063000000E+09     0.1000000000E+03
         0.1064000000E+09     0.1000000000E+03
         0.1065000000E+09     0.1000000000E+03
         0.1066000000E+09     0.1000000000E+03
         0.1067000000E+09     0.1000000000E+03
         0.1068000000E+09     0.1000000000E+03
         0.1069000000E+09     0.1000000000E+03
         0.1069000000E+09     0.1000000000E+03
         0.1070000000E+09     0.1000000000E+03
         0.1071000000E+09     0.1000000000E+03
         0.1072000000E+09     0.1000000000E+03
         0.1073000000E+09     0.1000000000E+03
         0.1074000000E+09     0.1000000000E+03
         0.1075000000E+09     0.1000000000E+03
         0.1076000000E+09     0.1000000000E+03
         0.1077000000E+09     0.1000000000E+03
         0.1078000000E+09     0.1000000000E+03
         0.1079000000E+09     0.1000000000E+03
         0.1079000000E+09     0.1000000000E+03
         0.1080000000E+09     0.1000000000E+03
         0.1081000000E+09     0.1000000000E+03
         0.1082000000E+09     0.1000000000E+03
         0.1083000000E+09     0.1000000000E+03
         0.1084000000E+09     0.1000000000E+03
         0.1085000000E+09     0.1000000000E+03
         0.1085000000E+09     0.1000000000E+03
         0.1086000000E+09     0.1000000000E+03
         0.1087000000E+09     0.1000000000E+03
         0.1088000000E+09     0.1000000000E+03
         0.1089000000E+09     0.1000000000E+03
         0.1090000000E+09     0.1000000000E+03
         0.1091000000E+09     0.1000000000E+03
         0.1091000000E+09     0.1000000000E+03
         0.1092000000E+09     0.1000000000E+03
         0.1093000000E+09     0.1000000000E+03
         0.1094000000E+09     0.1000000000E+03
         0.1095000000E+09     0.1000000000E+03
         0.1096000000E+09     0.1000000000E+03
         0.1097000000E+09     0.1000000000E+03
         0.1098000000E+09     0.1000000000E+03
         0.1099000000E+09     0.1000000000E+03
         0.1100000000E+09     0.1000000000E+03
         0.1101000000E+09     0.1000000000E+03
         0.1101000000E+09     0.1000000000E+03
         0.1102000000E+09     0.1000000000E+03
         0.1103000000E+09     0.1000000000E+03
         0.1104000000E+09     0.1000000000E+03
         0.1105000000E+09     0.1000000000E+03
         0.1106000000E+09     0.1000000000E+03
         0.1107000000E+09     0.1000000000E+03
         0.1107000000E+09     0.1000000000E+03
         0.1108000000E+09     0.1000000000E+03
         0.1109000000E+09     0.1000000000E+03
         0.1110000000E+09     0.1000000000E+03
         0.1111000000E+09     0.1000000000E+03
         0.1112000000E+09     0.1000000000E+03
         0.1113000000E+09     0.1000000000E+03
         0.1113000000E+09     0.1000000000E+03
         0.1114000000E+09     0.1000000000E+03
         0.1115000000E+09     0.1000000000E+03
         0.1116000000E+09     0.1000000000E+03
         0.1117000000E+09     0.1000000000E+03
         0.1118000000E+09     0.1000000000E+03
         0.1119000000E+09     0.1000000000E+03
         0.1120000000E+09     0.1000000000E+03
         0.1121000000E+09     0.1000000000E+03
         0.1122000000E+09     0.1000000000E+03
         0.1123000000E+09     0.1000000000E+03
         0.1123000000E+09     0.1000000000E+03
         0.1124000000E+09     0.1000000000E+03
         0.1125000000E+09     0.1000000000E+03
         0.1126000000E+09     0.1000000000E+03
         0.1127000000E+09     0.1000000000E+03
         0.1128000000E+09     0.1000000000E+03
         0.1129000000E+09     0.1000000000E+03
         0.1129000000E+09     0.1000000000E+03
         0.1130000000E+09     0.1000000000E+03
         0.1131000000E+09     0.1000000000E+03
         0.1132000000E+09     0.1000000000E+03
         0.1133000000E+09     0.1000000000E+03
         0.1134000000E+09     0.1000000000E+03
         0.1135000000E+09     0.1000000000E+03
         0.1135000000E+09     0.1000000000E+03
         0.1136000000E+09     0.1000000000E+03
         0.1137000000E+09     0.1000000000E+03
         0.1138000000E+09     0.1000000000E+03
         0.1139000000E+09     0.1000000000E+03
         0.1140000000E+09     0.1000000000E+03
         0.1141000000E+09     0.1000000000E+03
         0.1142000000E+09     0.1000000000E+03
         0.1143000000E+09     0.1000000000E+03
         0.1144000000E+09     0.1000000000E+03
         0.1145000000E+09     0.1000000000E+03
         0.1145000000E+09     0.1000000000E+03
         0.1146000000E+09     0.1000000000E+03
         0.1147000000E+09     0.1000000000E+03
         0.1148000000E+09     0.1000000000E+03
         0.1149000000E+09     0.1000000000E+03
         0.1150000000E+09     0.1000000000E+03
         0.1151000000E+09     0.1000000000E+03
         0.1151000000E+09     0.1000000000E+03
         0.1152000000E+09     0.1000000000E+03
         0.1153000000E+09     0.1000000000E+03
         0.1154000000E+09     0.1000000000E+03
         0.1155000000E+09     0.1000000000E+03
         0.1156000000E+09     0.1000000000E+03
         0.1157000000E+09     0.1000000000E+03
         0.1157000000E+09     0.1000000000E+03
         0.1158000000E+09     0.1000000000E+03
         0.1159000000E+09     0.1000000000E+03
         0.1160000000E+09     0.1000000000E+03
         0.1161000000E+09     0.1000000000E+03
         0.1162000000E+09     0.1000000000E+03
         0.1163000000E+09     0.1000000000E+03
         0.1164000000E+09     0.1000000000E+03
         0.1165000000E+09     0.1000000000E+03
         0.1166000000E+09     0.1000000000E+03
         0.1167000000E+09     0.1000000000E+03
         0.1167000000E+09     0.1000000000E+03
         0.1168000000E+09     0.1000000000E+03
         0.1169000000E+09     0.1000000000E+03
         0.1170000000E+09     0.1000000000E+03
         0.1171000000E+09     0.1000000000E+03
         0.1172000000E+09     0.1000000000E+03
         0.1173000000E+09     0.1000000000E+03
         0.1173000000E+09     0.1000000000E+03
         0.1174000000E+09     0.1000000000E+03
         0.1175000000E+09     0.1000000000E+03
         0.1176000000E+09     0.1000000000E+03
         0.1177000000E+09     0.1000000000E+03
         0.1178000000E+09     0.1000000000E+03
         0.1179000000E+09     0.1000000000E+03
         0.1179000000E+09     0.1000000000E+03
         0.1180000000E+09     0.1000000000E+03
         0.1181000000E+09     0.1000000000E+03
         0.1182000000E+09     0.1000000000E+03
         0.1183000000E+09     0.1000000000E+03
         0.1184000000E+09     0.1000000000E+03
         0.1185000000E+09     0.1000000000E+03
         0.1186000000E+09     0.1000000000E+03
         0.1187000000E+09     0.1000000000E+03
         0.1188000000E+09     0.1000000000E+03
         0.1189000000E+09     0.1000000000E+03
         0.1189000000E+09     0.1000000000E+03
         0.1190000000E+09     0.1000000000E+03
         0.1191000000E+09     0.1000000000E+03
         0.1192000000E+09     0.1000000000E+03
         0.1193000000E+09     0.1000000000E+03
         0.1194000000E+09     0.1000000000E+03
         0.1195000000E+09     0.1000000000E+03
         0.1195000000E+09     0.1000000000E+03
         0.1196000000E+09     0.1000000000E+03
         0.1197000000E+09     0.1000000000E+03
         0.1198000000E+09     0.1000000000E+03
         0.1199000000E+09     0.1000000000E+03
         0.1200000000E+09     0.1000000000E+03
         0.1201000000E+09     0.1000000000E+03
         0.1201000000E+09     0.1000000000E+03
         0.1202000000E+09     0.1000000000E+03
         0.1203000000E+09     0.1000000000E+03
         0.1204000000E+09     0.1000000000E+03
         0.1205000000E+09     0.1000000000E+03
         0.1206000000E+09     0.1000000000E+03
         0.1207000000E+09     0.1000000000E+03
         0.1208000000E+09     0.1000000000E+03
         0.1209000000E+09     0.1000000000E+03
         0.1210000000E+09     0.1000000000E+03
         0.1211000000E+09     0.1000000000E+03
         0.1211000000E+09     0.1000000000E+03
         0.1212000000E+09     0.1000000000E+03
         0.1213000000E+09     0.1000000000E+03
         0.1214000000E+09     0.1000000000E+03
         0.1215000000E+09     0.1000000000E+03
         0.1216000000E+09     0.1000000000E+03
         0.1217000000E+09     0.1000000000E+03
         0.1217000000E+09     0.1000000000E+03
         0.1218000000E+09     0.1000000000E+03
         0.1219000000E+09     0.1000000000E+03
         0.1220000000E+09     0.1000000000E+03
         0.1221000000E+09     0.1000000000E+03
         0.1222000000E+09     0.1000000000E+03
         0.1223000000E+09     0.1000000000E+03
         0.1223000000E+09     0.1000000000E+03
         0.1224000000E+09     0.1000000000E+03
         0.1225000000E+09     0.1000000000E+03
         0.1226000000E+09     0.1000000000E+03
         0.1227000000E+09     0.1000000000E+03
         0.1228000000E+09     0.1000000000E+03
         0.1229000000E+09     0.1000000000E+03
         0.1230000000E+09     0.1000000000E+03
         0.1231000000E+09     0.1000000000E+03
         0.1232000000E+09     0.1000000000E+03
         0.1233000000E+09     0.1000000000E+03
         0.1233000000E+09     0.1000000000E+03
         0.1234000000E+09     0.1000000000E+03
         0.1235000000E+09     0.1000000000E+03
         0.1236000000E+09     0.1000000000E+03
         0.1237000000E+09     0.1000000000E+03
         0.1238000000E+09     0.1000000000E+03
         0.1239000000E+09     0.1000000000E+03
         0.1239000000E+09     0.1000000000E+03
         0.1240000000E+09     0.1000000000E+03
         0.1241000000E+09     0.1000000000E+03
         0.1242000000E+09     0.1000000000E+03
         0.1243000000E+09     0.1000000000E+03
         0.1244000000E+09     0.1000000000E+03
         0.1245000000E+09     0.1000000000E+03
         0.1245000000E+09     0.1000000000E+03
         0.1246000000E+09     0.1000000000E+03
         0.1247000000E+09     0.1000000000E+03
         0.1248000000E+09     0.1000000000E+03
         0.1249000000E+09     0.1000000000E+03
         0.1250000000E+09     0.1000000000E+03
         0.1251000000E+09     0.1000000000E+03
         0.1252000000E+09     0.1000000000E+03
         0.1253000000E+09     0.1000000000E+03
         0.1254000000E+09     0.1000000000E+03
         0.1255000000E+09     0.1000000000E+03
         0.1255000000E+09     0.1000000000E+03
         0.1256000000E+09     0.1000000000E+03
         0.1257000000E+09     0.1000000000E+03
         0.1258000000E+09     0.1000000000E+03
         0.1259000000E+09     0.1000000000E+03
         0.1260000000E+09     0.1000000000E+03



            AREAL INFILTRATION RATE
 READING ON UNIT   19 WITH FORMAT: (10F4.0)            

            1           2           3           4           5           6           7           8           9          10
 ........................................................................................................................
   1   1.0000E-10  2.0000E-10   0.000       0.000       0.000       0.000       0.000       0.000       0.000       0.000    
   2   2.0000E-10  1.0000E-10  2.0000E-10   0.000       0.000      8.0000E-10  8.0000E-10  5.0000E-10   0.000       0.000    
   3    0.000      5.0000E-10  1.0000E-10  1.0000E-10  8.0000E-10  8.0000E-10  5.0000E-10  5.0000E-10   0.000       0.000    
   4   8.0000E-10  5.0000E-10  1.0000E-10  1.0000E-10  1.0000E-10  1.0000E-10  1.0000E-10  1.0000E-10  2.0000E-10   0.000    
   5   8.0000E-10  5.0000E-10  1.0000E-10  1.0000E-10  1.0000E-10  1.0000E-10  1.0000E-10  1.0000E-10  1.0000E-10  1.0000E-10
   6   8.0000E-10  5.0000E-10  5.0000E-10  2.0000E-10  2.0000E-10  1.0000E-10  1.0000E-10  1.0000E-10  1.0000E-10  5.0000E-10
   7   8.0000E-10  5.0000E-10  5.0000E-10  2.0000E-10  2.0000E-10  1.0000E-10  1.0000E-10  2.0000E-10  2.0000E-10   0.000    
   8    0.000      5.0000E-10  5.0000E-10  2.0000E-10  2.0000E-10  1.0000E-10  1.0000E-10  2.0000E-10  5.0000E-10   0.000    
   9    0.000      5.0000E-10  5.0000E-10  2.0000E-10  2.0000E-10  1.0000E-10  1.0000E-10  2.0000E-10  5.0000E-10   0.000    
  10    0.000      5.0000E-10  5.0000E-10  2.0000E-10  2.0000E-10  1.0000E-10  1.0000E-10  2.0000E-10  5.0000E-10  8.0000E-10
  11    0.000      1.0000E-10  1.0000E-10  1.0000E-10  1.0000E-10  1.0000E-10  1.0000E-10  2.0000E-10  5.0000E-10   0.000    
  12   1.0000E-10  1.0000E-10  1.0000E-10  1.0000E-10  1.0000E-10  1.0000E-10  1.0000E-10  1.0000E-10  2.0000E-10   0.000    
  13   1.0000E-10  1.0000E-10  2.0000E-10  2.0000E-10  2.0000E-10  2.0000E-10  2.0000E-10  1.0000E-10  1.0000E-10   0.000    
  14    0.000      2.0000E-10  5.0000E-10  5.0000E-10  5.0000E-10  5.0000E-10  5.0000E-10  2.0000E-10  1.0000E-10   0.000    
  15    0.000       0.000      8.0000E-10  8.0000E-10  8.0000E-10  8.0000E-10   0.000       0.000       0.000       0.000    

                  ET RATE =  1.000000E-08

      ET EXTINCTION DEPTH =  0.500000    

 EXTINCTION WATER CONTENT =  0.200000    

EXTINCTION WATER CONTENT FOR CELL AT ROW     1, COLUMN     1 IS LESS THAN RESIDUAL WATER CONTENT-- SETTING EXTINCTION WATER CONTENT EQUAL TO RESIDUAL WATER CONTENT

EXTINCTION WATER CONTENT FOR CELL AT ROW     1, COLUMN     2 IS LESS THAN RESIDUAL WATER CONTENT-- SETTING EXTINCTION WATER CONTENT EQUAL TO RESIDUAL WATER CONTENT

EXTINCTION WATER CONTENT FOR CELL AT ROW     2, COLUMN     1 IS LESS THAN RESIDUAL WATER CONTENT-- SETTING EXTINCTION WATER CONTENT EQUAL TO RESIDUAL WATER CONTENT

EXTINCTION WATER CONTENT FOR CELL AT ROW     2, COLUMN     2 IS LESS THAN RESIDUAL WATER CONTENT-- SETTING EXTINCTION WATER CONTENT EQUAL TO RESIDUAL WATER CONTENT

EXTINCTION WATER CONTENT FOR CELL AT ROW     2, COLUMN     3 IS LESS THAN RESIDUAL WATER CONTENT-- SETTING EXTINCTION WATER CONTENT EQUAL TO RESIDUAL WATER CONTENT

EXTINCTION WATER CONTENT FOR CELL AT ROW     2, COLUMN     6 IS LESS THAN RESIDUAL WATER CONTENT-- SETTING EXTINCTION WATER CONTENT EQUAL TO RESIDUAL WATER CONTENT

EXTINCTION WATER CONTENT FOR CELL AT ROW     2, COLUMN     7 IS LESS THAN RESIDUAL WATER CONTENT-- SETTING EXTINCTION WATER CONTENT EQUAL TO RESIDUAL WATER CONTENT

EXTINCTION WATER CONTENT FOR CELL AT ROW     2, COLUMN     8 IS LESS THAN RESIDUAL WATER CONTENT-- SETTING EXTINCTION WATER CONTENT EQUAL TO RESIDUAL WATER CONTENT

EXTINCTION WATER CONTENT FOR CELL AT ROW     3, COLUMN     2 IS LESS THAN RESIDUAL WATER CONTENT-- SETTING EXTINCTION WATER CONTENT EQUAL TO RESIDUAL WATER CONTENT

EXTINCTION WATER CONTENT FOR CELL AT ROW     3, COLUMN     3 IS LESS THAN RESIDUAL WATER CONTENT-- SETTING EXTINCTION WATER CONTENT EQUAL TO RESIDUAL WATER CONTENT

EXTINCTION WATER CONTENT FOR CELL AT ROW     3, COLUMN     4 IS LESS THAN RESIDUAL WATER CONTENT-- SETTING EXTINCTION WATER CONTENT EQUAL TO RESIDUAL WATER CONTENT

EXTINCTION WATER CONTENT FOR CELL AT ROW     3, COLUMN     5 IS LESS THAN RESIDUAL WATER CONTENT-- SETTING EXTINCTION WATER CONTENT EQUAL TO RESIDUAL WATER CONTENT

EXTINCTION WATER CONTENT FOR CELL AT ROW     3, COLUMN     6 IS LESS THAN RESIDUAL WATER CONTENT-- SETTING EXTINCTION WATER CONTENT EQUAL TO RESIDUAL WATER CONTENT

EXTINCTION WATER CONTENT FOR CELL AT ROW     3, COLUMN     7 IS LESS THAN RESIDUAL WATER CONTENT-- SETTING EXTINCTION WATER CONTENT EQUAL TO RESIDUAL WATER CONTENT

EXTINCTION WATER CONTENT FOR CELL AT ROW     3, COLUMN     8 IS LESS THAN RESIDUAL WATER CONTENT-- SETTING EXTINCTION WATER CONTENT EQUAL TO RESIDUAL WATER CONTENT

EXTINCTION WATER CONTENT FOR CELL AT ROW     4, COLUMN     1 IS LESS THAN RESIDUAL WATER CONTENT-- SETTING EXTINCTION WATER CONTENT EQUAL TO RESIDUAL WATER CONTENT

EXTINCTION WATER CONTENT FOR CELL AT ROW     4, COLUMN     2 IS LESS THAN RESIDUAL WATER CONTENT-- SETTING EXTINCTION WATER CONTENT EQUAL TO RESIDUAL WATER CONTENT

EXTINCTION WATER CONTENT FOR CELL AT ROW     4, COLUMN     3 IS LESS THAN RESIDUAL WATER CONTENT-- SETTING EXTINCTION WATER CONTENT EQUAL TO RESIDUAL WATER CONTENT

EXTINCTION WATER CONTENT FOR CELL AT ROW     4, COLUMN     4 IS LESS THAN RESIDUAL WATER CONTENT-- SETTING EXTINCTION WATER CONTENT EQUAL TO RESIDUAL WATER CONTENT

EXTINCTION WATER CONTENT FOR CELL AT ROW     4, COLUMN     5 IS LESS THAN RESIDUAL WATER CONTENT-- SETTING EXTINCTION WATER CONTENT EQUAL TO RESIDUAL WATER CONTENT

EXTINCTION WATER CONTENT FOR CELL AT ROW     4, COLUMN     6 IS LESS THAN RESIDUAL WATER CONTENT-- SETTING EXTINCTION WATER CONTENT EQUAL TO RESIDUAL WATER CONTENT

EXTINCTION WATER CONTENT FOR CELL AT ROW     4, COLUMN     7 IS LESS THAN RESIDUAL WATER CONTENT-- SETTING EXTINCTION WATER CONTENT EQUAL TO RESIDUAL WATER CONTENT

EXTINCTION WATER CONTENT FOR CELL AT ROW     4, COLUMN     8 IS LESS THAN RESIDUAL WATER CONTENT-- SETTING EXTINCTION WATER CONTENT EQUAL TO RESIDUAL WATER CONTENT

EXTINCTION WATER CONTENT FOR CELL AT ROW     4, COLUMN     9 IS LESS THAN RESIDUAL WATER CONTENT-- SETTING EXTINCTION WATER CONTENT EQUAL TO RESIDUAL WATER CONTENT

EXTINCTION WATER CONTENT FOR CELL AT ROW     5, COLUMN     1 IS LESS THAN RESIDUAL WATER CONTENT-- SETTING EXTINCTION WATER CONTENT EQUAL TO RESIDUAL WATER CONTENT

EXTINCTION WATER CONTENT FOR CELL AT ROW     5, COLUMN     2 IS LESS THAN RESIDUAL WATER CONTENT-- SETTING EXTINCTION WATER CONTENT EQUAL TO RESIDUAL WATER CONTENT

EXTINCTION WATER CONTENT FOR CELL AT ROW     5, COLUMN     3 IS LESS THAN RESIDUAL WATER CONTENT-- SETTING EXTINCTION WATER CONTENT EQUAL TO RESIDUAL WATER CONTENT

EXTINCTION WATER CONTENT FOR CELL AT ROW     5, COLUMN     4 IS LESS THAN RESIDUAL WATER CONTENT-- SETTING EXTINCTION WATER CONTENT EQUAL TO RESIDUAL WATER CONTENT

EXTINCTION WATER CONTENT FOR CELL AT ROW     5, COLUMN     5 IS LESS THAN RESIDUAL WATER CONTENT-- SETTING EXTINCTION WATER CONTENT EQUAL TO RESIDUAL WATER CONTENT

EXTINCTION WATER CONTENT FOR CELL AT ROW     5, COLUMN     6 IS LESS THAN RESIDUAL WATER CONTENT-- SETTING EXTINCTION WATER CONTENT EQUAL TO RESIDUAL WATER CONTENT

EXTINCTION WATER CONTENT FOR CELL AT ROW     5, COLUMN     7 IS LESS THAN RESIDUAL WATER CONTENT-- SETTING EXTINCTION WATER CONTENT EQUAL TO RESIDUAL WATER CONTENT

EXTINCTION WATER CONTENT FOR CELL AT ROW     5, COLUMN     8 IS LESS THAN RESIDUAL WATER CONTENT-- SETTING EXTINCTION WATER CONTENT EQUAL TO RESIDUAL WATER CONTENT

EXTINCTION WATER CONTENT FOR CELL AT ROW     5, COLUMN     9 IS LESS THAN RESIDUAL WATER CONTENT-- SETTING EXTINCTION WATER CONTENT EQUAL TO RESIDUAL WATER CONTENT

EXTINCTION WATER CONTENT FOR CELL AT ROW     5, COLUMN    10 IS LESS THAN RESIDUAL WATER CONTENT-- SETTING EXTINCTION WATER CONTENT EQUAL TO RESIDUAL WATER CONTENT

EXTINCTION WATER CONTENT FOR CELL AT ROW     6, COLUMN     1 IS LESS THAN RESIDUAL WATER CONTENT-- SETTING EXTINCTION WATER CONTENT EQUAL TO RESIDUAL WATER CONTENT

EXTINCTION WATER CONTENT FOR CELL AT ROW     6, COLUMN     2 IS LESS THAN RESIDUAL WATER CONTENT-- SETTING EXTINCTION WATER CONTENT EQUAL TO RESIDUAL WATER CONTENT

EXTINCTION WATER CONTENT FOR CELL AT ROW     6, COLUMN     3 IS LESS THAN RESIDUAL WATER CONTENT-- SETTING EXTINCTION WATER CONTENT EQUAL TO RESIDUAL WATER CONTENT

EXTINCTION WATER CONTENT FOR CELL AT ROW     6, COLUMN     4 IS LESS THAN RESIDUAL WATER CONTENT-- SETTING EXTINCTION WATER CONTENT EQUAL TO RESIDUAL WATER CONTENT

EXTINCTION WATER CONTENT FOR CELL AT ROW     6, COLUMN     5 IS LESS THAN RESIDUAL WATER CONTENT-- SETTING EXTINCTION WATER CONTENT EQUAL TO RESIDUAL WATER CONTENT

EXTINCTION WATER CONTENT FOR CELL AT ROW     6, COLUMN     6 IS LESS THAN RESIDUAL WATER CONTENT-- SETTING EXTINCTION WATER CONTENT EQUAL TO RESIDUAL WATER CONTENT

EXTINCTION WATER CONTENT FOR CELL AT ROW     6, COLUMN     7 IS LESS THAN RESIDUAL WATER CONTENT-- SETTING EXTINCTION WATER CONTENT EQUAL TO RESIDUAL WATER CONTENT

EXTINCTION WATER CONTENT FOR CELL AT ROW     6, COLUMN     8 IS LESS THAN RESIDUAL WATER CONTENT-- SETTING EXTINCTION WATER CONTENT EQUAL TO RESIDUAL WATER CONTENT

EXTINCTION WATER CONTENT FOR CELL AT ROW     6, COLUMN     9 IS LESS THAN RESIDUAL WATER CONTENT-- SETTING EXTINCTION WATER CONTENT EQUAL TO RESIDUAL WATER CONTENT

EXTINCTION WATER CONTENT FOR CELL AT ROW     6, COLUMN    10 IS LESS THAN RESIDUAL WATER CONTENT-- SETTING EXTINCTION WATER CONTENT EQUAL TO RESIDUAL WATER CONTENT

EXTINCTION WATER CONTENT FOR CELL AT ROW     7, COLUMN     1 IS LESS THAN RESIDUAL WATER CONTENT-- SETTING EXTINCTION WATER CONTENT EQUAL TO RESIDUAL WATER CONTENT

EXTINCTION WATER CONTENT FOR CELL AT ROW     7, COLUMN     2 IS LESS THAN RESIDUAL WATER CONTENT-- SETTING EXTINCTION WATER CONTENT EQUAL TO RESIDUAL WATER CONTENT

EXTINCTION WATER CONTENT FOR CELL AT ROW     7, COLUMN     3 IS LESS THAN RESIDUAL WATER CONTENT-- SETTING EXTINCTION WATER CONTENT EQUAL TO RESIDUAL WATER CONTENT

EXTINCTION WATER CONTENT FOR CELL AT ROW     7, COLUMN     4 IS LESS THAN RESIDUAL WATER CONTENT-- SETTING EXTINCTION WATER CONTENT EQUAL TO RESIDUAL WATER CONTENT

EXTINCTION WATER CONTENT FOR CELL AT ROW     7, COLUMN     5 IS LESS THAN RESIDUAL WATER CONTENT-- SETTING EXTINCTION WATER CONTENT EQUAL TO RESIDUAL WATER CONTENT

EXTINCTION WATER CONTENT FOR CELL AT ROW     7, COLUMN     6 IS LESS THAN RESIDUAL WATER CONTENT-- SETTING EXTINCTION WATER CONTENT EQUAL TO RESIDUAL WATER CONTENT

EXTINCTION WATER CONTENT FOR CELL AT ROW     7, COLUMN     7 IS LESS THAN RESIDUAL WATER CONTENT-- SETTING EXTINCTION WATER CONTENT EQUAL TO RESIDUAL WATER CONTENT

EXTINCTION WATER CONTENT FOR CELL AT ROW     7, COLUMN     8 IS LESS THAN RESIDUAL WATER CONTENT-- SETTING EXTINCTION WATER CONTENT EQUAL TO RESIDUAL WATER CONTENT

EXTINCTION WATER CONTENT FOR CELL AT ROW     7, COLUMN     9 IS LESS THAN RESIDUAL WATER CONTENT-- SETTING EXTINCTION WATER CONTENT EQUAL TO RESIDUAL WATER CONTENT

EXTINCTION WATER CONTENT FOR CELL AT ROW     8, COLUMN     2 IS LESS THAN RESIDUAL WATER CONTENT-- SETTING EXTINCTION WATER CONTENT EQUAL TO RESIDUAL WATER CONTENT

EXTINCTION WATER CONTENT FOR CELL AT ROW     8, COLUMN     3 IS LESS THAN RESIDUAL WATER CONTENT-- SETTING EXTINCTION WATER CONTENT EQUAL TO RESIDUAL WATER CONTENT

EXTINCTION WATER CONTENT FOR CELL AT ROW     8, COLUMN     4 IS LESS THAN RESIDUAL WATER CONTENT-- SETTING EXTINCTION WATER CONTENT EQUAL TO RESIDUAL WATER CONTENT

EXTINCTION WATER CONTENT FOR CELL AT ROW     8, COLUMN     5 IS LESS THAN RESIDUAL WATER CONTENT-- SETTING EXTINCTION WATER CONTENT EQUAL TO RESIDUAL WATER CONTENT

EXTINCTION WATER CONTENT FOR CELL AT ROW     8, COLUMN     6 IS LESS THAN RESIDUAL WATER CONTENT-- SETTING EXTINCTION WATER CONTENT EQUAL TO RESIDUAL WATER CONTENT

EXTINCTION WATER CONTENT FOR CELL AT ROW     8, COLUMN     7 IS LESS THAN RESIDUAL WATER CONTENT-- SETTING EXTINCTION WATER CONTENT EQUAL TO RESIDUAL WATER CONTENT

EXTINCTION WATER CONTENT FOR CELL AT ROW     8, COLUMN     8 IS LESS THAN RESIDUAL WATER CONTENT-- SETTING EXTINCTION WATER CONTENT EQUAL TO RESIDUAL WATER CONTENT

EXTINCTION WATER CONTENT FOR CELL AT ROW     8, COLUMN     9 IS LESS THAN RESIDUAL WATER CONTENT-- SETTING EXTINCTION WATER CONTENT EQUAL TO RESIDUAL WATER CONTENT

EXTINCTION WATER CONTENT FOR CELL AT ROW     9, COLUMN     2 IS LESS THAN RESIDUAL WATER CONTENT-- SETTING EXTINCTION WATER CONTENT EQUAL TO RESIDUAL WATER CONTENT

EXTINCTION WATER CONTENT FOR CELL AT ROW     9, COLUMN     3 IS LESS THAN RESIDUAL WATER CONTENT-- SETTING EXTINCTION WATER CONTENT EQUAL TO RESIDUAL WATER CONTENT

EXTINCTION WATER CONTENT FOR CELL AT ROW     9, COLUMN     4 IS LESS THAN RESIDUAL WATER CONTENT-- SETTING EXTINCTION WATER CONTENT EQUAL TO RESIDUAL WATER CONTENT

EXTINCTION WATER CONTENT FOR CELL AT ROW     9, COLUMN     5 IS LESS THAN RESIDUAL WATER CONTENT-- SETTING EXTINCTION WATER CONTENT EQUAL TO RESIDUAL WATER CONTENT

EXTINCTION WATER CONTENT FOR CELL AT ROW     9, COLUMN     6 IS LESS THAN RESIDUAL WATER CONTENT-- SETTING EXTINCTION WATER CONTENT EQUAL TO RESIDUAL WATER CONTENT

EXTINCTION WATER CONTENT FOR CELL AT ROW     9, COLUMN     7 IS LESS THAN RESIDUAL WATER CONTENT-- SETTING EXTINCTION WATER CONTENT EQUAL TO RESIDUAL WATER CONTENT

EXTINCTION WATER CONTENT FOR CELL AT ROW     9, COLUMN     8 IS LESS THAN RESIDUAL WATER CONTENT-- SETTING EXTINCTION WATER CONTENT EQUAL TO RESIDUAL WATER CONTENT

EXTINCTION WATER CONTENT FOR CELL AT ROW     9, COLUMN     9 IS LESS THAN RESIDUAL WATER CONTENT-- SETTING EXTINCTION WATER CONTENT EQUAL TO RESIDUAL WATER CONTENT

EXTINCTION WATER CONTENT FOR CELL AT ROW    10, COLUMN     2 IS LESS THAN RESIDUAL WATER CONTENT-- SETTING EXTINCTION WATER CONTENT EQUAL TO RESIDUAL WATER CONTENT

EXTINCTION WATER CONTENT FOR CELL AT ROW    10, COLUMN     3 IS LESS THAN RESIDUAL WATER CONTENT-- SETTING EXTINCTION WATER CONTENT EQUAL TO RESIDUAL WATER CONTENT

EXTINCTION WATER CONTENT FOR CELL AT ROW    10, COLUMN     4 IS LESS THAN RESIDUAL WATER CONTENT-- SETTING EXTINCTION WATER CONTENT EQUAL TO RESIDUAL WATER CONTENT

EXTINCTION WATER CONTENT FOR CELL AT ROW    10, COLUMN     5 IS LESS THAN RESIDUAL WATER CONTENT-- SETTING EXTINCTION WATER CONTENT EQUAL TO RESIDUAL WATER CONTENT

EXTINCTION WATER CONTENT FOR CELL AT ROW    10, COLUMN     6 IS LESS THAN RESIDUAL WATER CONTENT-- SETTING EXTINCTION WATER CONTENT EQUAL TO RESIDUAL WATER CONTENT

EXTINCTION WATER CONTENT FOR CELL AT ROW    10, COLUMN     7 IS LESS THAN RESIDUAL WATER CONTENT-- SETTING EXTINCTION WATER CONTENT EQUAL TO RESIDUAL WATER CONTENT

EXTINCTION WATER CONTENT FOR CELL AT ROW    10, COLUMN     8 IS LESS THAN RESIDUAL WATER CONTENT-- SETTING EXTINCTION WATER CONTENT EQUAL TO RESIDUAL WATER CONTENT

EXTINCTION WATER CONTENT FOR CELL AT ROW    10, COLUMN     9 IS LESS THAN RESIDUAL WATER CONTENT-- SETTING EXTINCTION WATER CONTENT EQUAL TO RESIDUAL WATER CONTENT

EXTINCTION WATER CONTENT FOR CELL AT ROW    10, COLUMN    10 IS LESS THAN RESIDUAL WATER CONTENT-- SETTING EXTINCTION WATER CONTENT EQUAL TO RESIDUAL WATER CONTENT

EXTINCTION WATER CONTENT FOR CELL AT ROW    11, COLUMN     2 IS LESS THAN RESIDUAL WATER CONTENT-- SETTING EXTINCTION WATER CONTENT EQUAL TO RESIDUAL WATER CONTENT

EXTINCTION WATER CONTENT FOR CELL AT ROW    11, COLUMN     3 IS LESS THAN RESIDUAL WATER CONTENT-- SETTING EXTINCTION WATER CONTENT EQUAL TO RESIDUAL WATER CONTENT

EXTINCTION WATER CONTENT FOR CELL AT ROW    11, COLUMN     4 IS LESS THAN RESIDUAL WATER CONTENT-- SETTING EXTINCTION WATER CONTENT EQUAL TO RESIDUAL WATER CONTENT

EXTINCTION WATER CONTENT FOR CELL AT ROW    11, COLUMN     5 IS LESS THAN RESIDUAL WATER CONTENT-- SETTING EXTINCTION WATER CONTENT EQUAL TO RESIDUAL WATER CONTENT

EXTINCTION WATER CONTENT FOR CELL AT ROW    11, COLUMN     6 IS LESS THAN RESIDUAL WATER CONTENT-- SETTING EXTINCTION WATER CONTENT EQUAL TO RESIDUAL WATER CONTENT

EXTINCTION WATER CONTENT FOR CELL AT ROW    11, COLUMN     7 IS LESS THAN RESIDUAL WATER CONTENT-- SETTING EXTINCTION WATER CONTENT EQUAL TO RESIDUAL WATER CONTENT

EXTINCTION WATER CONTENT FOR CELL AT ROW    11, COLUMN     8 IS LESS THAN RESIDUAL WATER CONTENT-- SETTING EXTINCTION WATER CONTENT EQUAL TO RESIDUAL WATER CONTENT

EXTINCTION WATER CONTENT FOR CELL AT ROW    11, COLUMN     9 IS LESS THAN RESIDUAL WATER CONTENT-- SETTING EXTINCTION WATER CONTENT EQUAL TO RESIDUAL WATER CONTENT

EXTINCTION WATER CONTENT FOR CELL AT ROW    12, COLUMN     1 IS LESS THAN RESIDUAL WATER CONTENT-- SETTING EXTINCTION WATER CONTENT EQUAL TO RESIDUAL WATER CONTENT

EXTINCTION WATER CONTENT FOR CELL AT ROW    12, COLUMN     2 IS LESS THAN RESIDUAL WATER CONTENT-- SETTING EXTINCTION WATER CONTENT EQUAL TO RESIDUAL WATER CONTENT

EXTINCTION WATER CONTENT FOR CELL AT ROW    12, COLUMN     3 IS LESS THAN RESIDUAL WATER CONTENT-- SETTING EXTINCTION WATER CONTENT EQUAL TO RESIDUAL WATER CONTENT

EXTINCTION WATER CONTENT FOR CELL AT ROW    12, COLUMN     4 IS LESS THAN RESIDUAL WATER CONTENT-- SETTING EXTINCTION WATER CONTENT EQUAL TO RESIDUAL WATER CONTENT

EXTINCTION WATER CONTENT FOR CELL AT ROW    12, COLUMN     5 IS LESS THAN RESIDUAL WATER CONTENT-- SETTING EXTINCTION WATER CONTENT EQUAL TO RESIDUAL WATER CONTENT

EXTINCTION WATER CONTENT FOR CELL AT ROW    12, COLUMN     6 IS LESS THAN RESIDUAL WATER CONTENT-- SETTING EXTINCTION WATER CONTENT EQUAL TO RESIDUAL WATER CONTENT

EXTINCTION WATER CONTENT FOR CELL AT ROW    12, COLUMN     7 IS LESS THAN RESIDUAL WATER CONTENT-- SETTING EXTINCTION WATER CONTENT EQUAL TO RESIDUAL WATER CONTENT

EXTINCTION WATER CONTENT FOR CELL AT ROW    12, COLUMN     8 IS LESS THAN RESIDUAL WATER CONTENT-- SETTING EXTINCTION WATER CONTENT EQUAL TO RESIDUAL WATER CONTENT

EXTINCTION WATER CONTENT FOR CELL AT ROW    12, COLUMN     9 IS LESS THAN RESIDUAL WATER CONTENT-- SETTING EXTINCTION WATER CONTENT EQUAL TO RESIDUAL WATER CONTENT

EXTINCTION WATER CONTENT FOR CELL AT ROW    13, COLUMN     1 IS LESS THAN RESIDUAL WATER CONTENT-- SETTING EXTINCTION WATER CONTENT EQUAL TO RESIDUAL WATER CONTENT

EXTINCTION WATER CONTENT FOR CELL AT ROW    13, COLUMN     2 IS LESS THAN RESIDUAL WATER CONTENT-- SETTING EXTINCTION WATER CONTENT EQUAL TO RESIDUAL WATER CONTENT

EXTINCTION WATER CONTENT FOR CELL AT ROW    13, COLUMN     3 IS LESS THAN RESIDUAL WATER CONTENT-- SETTING EXTINCTION WATER CONTENT EQUAL TO RESIDUAL WATER CONTENT

EXTINCTION WATER CONTENT FOR CELL AT ROW    13, COLUMN     4 IS LESS THAN RESIDUAL WATER CONTENT-- SETTING EXTINCTION WATER CONTENT EQUAL TO RESIDUAL WATER CONTENT

EXTINCTION WATER CONTENT FOR CELL AT ROW    13, COLUMN     5 IS LESS THAN RESIDUAL WATER CONTENT-- SETTING EXTINCTION WATER CONTENT EQUAL TO RESIDUAL WATER CONTENT

EXTINCTION WATER CONTENT FOR CELL AT ROW    13, COLUMN     6 IS LESS THAN RESIDUAL WATER CONTENT-- SETTING EXTINCTION WATER CONTENT EQUAL TO RESIDUAL WATER CONTENT

EXTINCTION WATER CONTENT FOR CELL AT ROW    13, COLUMN     7 IS LESS THAN RESIDUAL WATER CONTENT-- SETTING EXTINCTION WATER CONTENT EQUAL TO RESIDUAL WATER CONTENT

EXTINCTION WATER CONTENT FOR CELL AT ROW    13, COLUMN     8 IS LESS THAN RESIDUAL WATER CONTENT-- SETTING EXTINCTION WATER CONTENT EQUAL TO RESIDUAL WATER CONTENT

EXTINCTION WATER CONTENT FOR CELL AT ROW    13, COLUMN     9 IS LESS THAN RESIDUAL WATER CONTENT-- SETTING EXTINCTION WATER CONTENT EQUAL TO RESIDUAL WATER CONTENT

EXTINCTION WATER CONTENT FOR CELL AT ROW    14, COLUMN     2 IS LESS THAN RESIDUAL WATER CONTENT-- SETTING EXTINCTION WATER CONTENT EQUAL TO RESIDUAL WATER CONTENT

EXTINCTION WATER CONTENT FOR CELL AT ROW    14, COLUMN     3 IS LESS THAN RESIDUAL WATER CONTENT-- SETTING EXTINCTION WATER CONTENT EQUAL TO RESIDUAL WATER CONTENT

EXTINCTION WATER CONTENT FOR CELL AT ROW    14, COLUMN     4 IS LESS THAN RESIDUAL WATER CONTENT-- SETTING EXTINCTION WATER CONTENT EQUAL TO RESIDUAL WATER CONTENT

EXTINCTION WATER CONTENT FOR CELL AT ROW    14, COLUMN     5 IS LESS THAN RESIDUAL WATER CONTENT-- SETTING EXTINCTION WATER CONTENT EQUAL TO RESIDUAL WATER CONTENT

EXTINCTION WATER CONTENT FOR CELL AT ROW    14, COLUMN     6 IS LESS THAN RESIDUAL WATER CONTENT-- SETTING EXTINCTION WATER CONTENT EQUAL TO RESIDUAL WATER CONTENT

EXTINCTION WATER CONTENT FOR CELL AT ROW    14, COLUMN     7 IS LESS THAN RESIDUAL WATER CONTENT-- SETTING EXTINCTION WATER CONTENT EQUAL TO RESIDUAL WATER CONTENT

EXTINCTION WATER CONTENT FOR CELL AT ROW    14, COLUMN     8 IS LESS THAN RESIDUAL WATER CONTENT-- SETTING EXTINCTION WATER CONTENT EQUAL TO RESIDUAL WATER CONTENT

EXTINCTION WATER CONTENT FOR CELL AT ROW    14, COLUMN     9 IS LESS THAN RESIDUAL WATER CONTENT-- SETTING EXTINCTION WATER CONTENT EQUAL TO RESIDUAL WATER CONTENT

EXTINCTION WATER CONTENT FOR CELL AT ROW    15, COLUMN     3 IS LESS THAN RESIDUAL WATER CONTENT-- SETTING EXTINCTION WATER CONTENT EQUAL TO RESIDUAL WATER CONTENT

EXTINCTION WATER CONTENT FOR CELL AT ROW    15, COLUMN     4 IS LESS THAN RESIDUAL WATER CONTENT-- SETTING EXTINCTION WATER CONTENT EQUAL TO RESIDUAL WATER CONTENT

EXTINCTION WATER CONTENT FOR CELL AT ROW    15, COLUMN     5 IS LESS THAN RESIDUAL WATER CONTENT-- SETTING EXTINCTION WATER CONTENT EQUAL TO RESIDUAL WATER CONTENT

EXTINCTION WATER CONTENT FOR CELL AT ROW    15, COLUMN     6 IS LESS THAN RESIDUAL WATER CONTENT-- SETTING EXTINCTION WATER CONTENT EQUAL TO RESIDUAL WATER CONTENT

       AIR ENTRY PRESSURE =  -1.10000    

            ROOT PRESSURE =  -75.0000    

            ROOT ACTIVITY =   1.00000    
 # AG segment list

 PROCESSING SEGMENT LIST

 FINISHED READING SEGMENT LIST
 # AG well list

 PROCESSING WELL LIST

 LAYER   ROW   COL   MAX STRESS RATE         
 --------------------------------------------
      1      1      6      4      -100.0    
      2      1      6      5      -100.0    
      3      1      7      4      -100.0    
      4      1      7      5      -100.0    
      5      1      8      4      -100.0    
      6      1      8      5      -100.0    

 FINISHED READING WELL LIST

      6 WELLS

 PROCESSING AG STRESS PERIOD DATA
 # AG stress period

 READING AG STRESS PERIOD DATA

 READING IRRIGATION SEGMENT

 READING IRRIGATION WELL

 READING SUPPLEMENTAL WELL

 END PROCESSING AG STRESS PERIOD DATA OPTIONS
 
 SOLVING FOR HEAD 
                                                   Max.-Head-Change                         Max.-Flux-Residual
  Residual-Control   Outer-Iter.   Inner-Iter.     Column Row Layer    Maximum-Head-Change  Column Row Layer    Maximum-Flux-Residual          L2-NORM 
          0                 1           6             2    2     1      -0.2843914191E+02       3    3    1        -0.3360741367E+01      0.9336255202E+01
          0                 2           6             1    1     1      -0.3130416779E+02       1   13    1        -0.6347781745E+02      0.6369041869E+02
          0                 3           5             1    1     1      -0.1456238505E+01       6   13    1        -0.2214092883E+01      0.3433615922E+01
          0                 4           5             5   13     1      -0.1645980091E+00       5   13    1        -0.3292041480E+00      0.3977240951E+00
          0                 5           4             5   14     1       0.3281686166E-01       5   13    1         0.1669597068E-01      0.2767752842E-01
          0                 6           2             5   14     1      -0.1281592110E-02       5   13    1        -0.6694907493E-03      0.2031367476E-02
          0                 7           1             5   10     1       0.1514216708E-04       5   10    1         0.2520492239E-04      0.8039520649E-04

    ------------------------------------------------
       NWT REQUIRED            7 OUTER ITERATIONS 
       AND A TOTAL OF         29 INNER ITERATIONS.
    ------------------------------------------------

 OUTPUT CONTROL FOR STRESS PERIOD    1   TIME STEP    1
    PRINT BUDGET
    PRINT HEAD FOR ALL LAYERS
    SAVE BUDGET
    SAVE HEAD FOR ALL LAYERS
 UBDSV2 SAVING "   CONSTANT HEAD" ON UNIT 102 AT TIME STEP  1, STRESS PERIOD   1
 UBDSV1 SAVING "FLOW RIGHT FACE " ON UNIT 102 AT TIME STEP  1, STRESS PERIOD   1
 UBDSV1 SAVING "FLOW FRONT FACE " ON UNIT 102 AT TIME STEP  1, STRESS PERIOD   1

  HEAD DEP BOUNDS   PERIOD    1   STEP     1
 BOUNDARY      1   LAYER   1   ROW    13   COL     1   RATE   -0.287059    
 BOUNDARY      2   LAYER   1   ROW    14   COL     9   RATE    0.285620    



 STREAM LISTING     PERIOD      1   STEP        1

 LAYER ROW COL. STREAM  RCH.  FLOW INTO     FLOW TO   FLOW OUT OF   OVRLND.     DIRECT     STREAM       STREAM     STREAM     STREAM   STREAMBED  STREAMBED
                SEG.NO.  NO.  STRM. RCH.    AQUIFER    STRM. RCH.    RUNOFF     PRECIP       ET          HEAD       DEPTH      WIDTH   CONDCTNC.   GRADIENT

   1    1    1     1     1    3.7500E+00  8.5597E-02   3.6644E+00  0.000E+00  0.000E+00  0.000E+00  1.09373E+03  6.817E-01  5.166E+00  2.325E-02  1.227E+00
   1    2    2     1     2    3.6644E+00  1.3158E-01   3.5328E+00  0.000E+00  0.000E+00  0.000E+00  1.08873E+03  6.747E-01  5.115E+00  3.581E-02  1.225E+00
   1    3    3     1     3    3.5328E+00  1.1125E-01   3.4216E+00  0.000E+00  0.000E+00  0.000E+00  1.08309E+03  6.667E-01  5.057E+00  3.034E-02  1.222E+00
   1    3    4     1     4    3.4216E+00  1.0164E-01   3.3199E+00  0.000E+00  0.000E+00  0.000E+00  1.07807E+03  6.595E-01  5.004E+00  2.777E-02  1.220E+00
   1    4    5     2     1    1.3199E+00  2.4920E-01   1.0707E+00  0.000E+00  0.000E+00  0.000E+00  1.07213E+03  1.948E-01  1.200E+01  7.800E-02  1.065E+00
   1    5    6     2     2    1.0707E+00  1.9035E-01   8.8040E-01  0.000E+00  0.000E+00  0.000E+00  1.06668E+03  1.725E-01  1.200E+01  6.000E-02  1.057E+00
   1    6    6     2     3    8.8040E-01  1.8909E-01   6.9131E-01  0.000E+00  0.000E+00  0.000E+00  1.06194E+03  1.515E-01  1.200E+01  6.000E-02  1.050E+00
   1    7    6     2     4    6.9131E-01  1.8771E-01   5.0360E-01  0.000E+00  0.000E+00  0.000E+00  1.05720E+03  1.285E-01  1.200E+01  6.000E-02  1.043E+00
   1    8    6     2     5    5.0360E-01  1.8616E-01   3.1744E-01  0.000E+00  0.000E+00  0.000E+00  1.05246E+03  1.026E-01  1.200E+01  6.000E-02  1.034E+00
   1    3    5     3     1    2.0000E+00  2.8252E-01   1.7175E+00  0.000E+00  0.000E+00  0.000E+00  1.07555E+03  1.909E+00  9.636E+00  7.227E-02  1.955E+00
   1    3    6     3     2    1.7175E+00  2.4905E-01   1.4684E+00  0.000E+00  0.000E+00  0.000E+00  1.07264E+03  1.727E+00  8.909E+00  6.682E-02  1.864E+00
   1    3    7     3     3    1.4684E+00  1.9718E-01   1.2712E+00  0.000E+00  0.000E+00  0.000E+00  1.06987E+03  1.555E+00  8.218E+00  5.547E-02  1.777E+00
   1    4    8     3     4    1.2712E+00  2.2567E-01   1.0456E+00  0.000E+00  0.000E+00  0.000E+00  1.06682E+03  1.364E+00  7.455E+00  6.709E-02  1.682E+00
   1    5    8     3     5    1.0456E+00  1.5790E-01   8.8768E-01  0.000E+00  0.000E+00  0.000E+00  1.06362E+03  1.164E+00  6.655E+00  4.991E-02  1.582E+00
   1    6    8     3     6    8.8768E-01  5.5980E-02   8.3170E-01  0.000E+00  0.000E+00  0.000E+00  1.06158E+03  1.036E+00  6.145E+00  1.844E-02  1.518E+00
   1    5   10     4     1    1.0000E+01  9.0919E-02   9.9091E+00  0.000E+00  0.000E+00  0.000E+00  1.07836E+03  6.368E-01  1.000E+01  2.500E-02  1.212E+00
   1    5    9     4     2    9.9091E+00  1.8158E-01   9.7275E+00  0.000E+00  0.000E+00  0.000E+00  1.07154E+03  6.315E-01  1.000E+01  5.000E-02  1.211E+00
   1    6    8     4     3    9.7275E+00  1.2689E-01   9.6006E+00  0.000E+00  0.000E+00  0.000E+00  1.06381E+03  6.256E-01  1.000E+01  3.500E-02  1.209E+00
   1    6    8     5     1    1.0432E+01  2.2686E-01   1.0205E+01  0.000E+00  0.000E+00  0.000E+00  1.05868E+03  6.790E-01  1.542E+01  6.166E-02  1.226E+00
   1    7    7     5     2    1.0205E+01  2.7894E-01   9.9265E+00  0.000E+00  0.000E+00  0.000E+00  1.05417E+03  6.732E-01  1.519E+01  7.594E-02  1.224E+00
   1    8    7     5     3    9.9265E+00  1.9221E-01   9.7343E+00  0.000E+00  0.000E+00  0.000E+00  1.04992E+03  6.676E-01  1.497E+01  5.241E-02  1.223E+00
   1    8    6     5     4    9.7343E+00  1.3577E-01   9.5985E+00  0.000E+00  0.000E+00  0.000E+00  1.04691E+03  6.637E-01  1.482E+01  3.706E-02  1.221E+00
   1    9    6     6     1    9.9160E+00  2.2178E-01   9.6942E+00  0.000E+00  0.000E+00  0.000E+00  1.04342E+03  6.964E-01  1.200E+01  6.000E-02  1.232E+00
   1   10    7     6     2    9.6942E+00  2.2121E-01   9.4730E+00  0.000E+00  0.000E+00  0.000E+00  1.03887E+03  6.869E-01  1.200E+01  6.000E-02  1.229E+00
   1   11    7     6     3    9.4730E+00  2.2064E-01   9.2523E+00  0.000E+00  0.000E+00  0.000E+00  1.03431E+03  6.773E-01  1.200E+01  6.000E-02  1.226E+00
   1   12    7     6     4    9.2523E+00  2.2006E-01   9.0323E+00  0.000E+00  0.000E+00  0.000E+00  1.02976E+03  6.677E-01  1.200E+01  6.000E-02  1.223E+00
   1   13    7     6     5    9.0323E+00 -1.1354E-01   9.1458E+00  0.000E+00  0.000E+00  0.000E+00  1.02657E+03  6.654E-01  1.200E+01  2.400E-01 -1.577E-01
   1   14    9     7     1    1.5000E+02  1.3338E+00   1.4867E+02  0.000E+00  0.000E+00  0.000E+00  1.03987E+03  2.288E+00  5.529E+01  5.593E-01  7.949E-01
   1   13    8     7     2    1.4867E+02  1.8355E+00   1.4683E+02  0.000E+00  0.000E+00  0.000E+00  1.03478E+03  2.279E+00  5.526E+01  6.148E-01  9.952E-01
   1   13    7     7     3    1.4683E+02  1.4756E+00   1.4536E+02  0.000E+00  0.000E+00  0.000E+00  1.02969E+03  2.270E+00  5.522E+01  5.585E-01  8.807E-01
   1   13    6     8     1    1.5450E+02  8.2944E-01   1.5367E+02  0.000E+00  0.000E+00  0.000E+00  1.02472E+03  2.845E+00  4.126E+01  4.204E-01  6.576E-01
   1   13    5     8     2    1.5367E+02  1.0127E-01   1.5357E+02  0.000E+00  0.000E+00  0.000E+00  1.01847E+03  2.842E+00  4.121E+01  4.200E-01  8.038E-02
   1   13    4     8     3    1.5357E+02 -2.6792E+00   1.5625E+02  0.000E+00  0.000E+00  0.000E+00  1.01223E+03  2.851E+00  4.134E+01  4.213E+00 -2.120E-01
   1   13    3     8     4    1.5625E+02 -3.7567E+00   1.6001E+02  0.000E+00  0.000E+00  0.000E+00  1.00600E+03  2.873E+00  4.166E+01  4.245E+00 -2.950E-01
   1   13    2     8     5    1.6001E+02 -2.6055E+00   1.6261E+02  0.000E+00  0.000E+00  0.000E+00  9.99770E+02  2.895E+00  4.197E+01  4.277E+00 -2.031E-01
   1   13    1     8     6    1.6261E+02 -1.9843E+00   1.6460E+02  0.000E+00  0.000E+00  0.000E+00  9.94785E+02  2.910E+00  4.220E+01  2.580E+00 -2.564E-01
   1    8    6     9     1    0.0000E+00  0.0000E+00   0.0000E+00  0.000E+00  0.000E+00  0.000E+00  1.07875E+03  0.000E+00  4.000E+00  0.000E+00  1.000E+00
   1    8    5     9     2    0.0000E+00  0.0000E+00   0.0000E+00  0.000E+00  0.000E+00  0.000E+00  1.07825E+03  0.000E+00  4.000E+00  0.000E+00  1.000E+00



 UBDSV3 SAVING "           GW ET" ON UNIT  61 AT TIME STEP  1, STRESS PERIOD   1
 UBDSV3 SAVING "    UZF RECHARGE" ON UNIT  61 AT TIME STEP  1, STRESS PERIOD   1
 UBDSV3 SAVING " SURFACE LEAKAGE" ON UNIT  61 AT TIME STEP  1, STRESS PERIOD   1
 UBDSV3 SAVING "       HORT+DUNN" ON UNIT  61 AT TIME STEP  1, STRESS PERIOD   1
 UBDSV3 SAVING "  STORAGE CHANGE" ON UNIT  61 AT TIME STEP  1, STRESS PERIOD   1


UNSATURATED ZONE PACKAGE VOLUMETRIC BUDGET FOR  TIME STEP     1 STRESS PERIOD    1
  ------------------------------------------------------------------------------



     CUMULATIVE VOLUMES      L**3       RATES FOR THIS TIME STEP      L**3/T
     ------------------                 ------------------------

           IN:                                      IN:
           ---                                      ---
        INFILTRATION =       73224.0000          INFILTRATION =           0.8475

          OUT:                                     OUT:
          ----                                     ----
              UZF ET =       0.0000E+00                UZF ET =       0.0000E+00
        UZF RECHARGE =       73224.0000          UZF RECHARGE =           0.8475

            IN - OUT =       0.0000E+00              IN - OUT =       0.0000E+00

          STORAGE:                                 STORAGE:
          --------                                 --------
      STORAGE CHANGE =       0.0000E+00        STORAGE CHANGE =       0.0000E+00

 PERCENT DISCREPANCY IS DIFFERENCE BETWEEN IN-OUT MINUS CHANGE IN STORAGE
 DIVIDED BY THE AVERAGE OF IN AND OUT TIMES 100

 PERCENT DISCREPANCY =           0.00     PERCENT DISCREPANCY =           0.00






 

            AG WELLS      PERIOD    1   STEP   1
 AG WELL      1   LAYER   1   ROW     6   COL     4   RATE     0.00000    
 AG WELL      2   LAYER   1   ROW     6   COL     5   RATE     0.00000    
 AG WELL      3   LAYER   1   ROW     7   COL     4   RATE     0.00000    
 AG WELL      4   LAYER   1   ROW     7   COL     5   RATE     0.00000    
 AG WELL      5   LAYER   1   ROW     8   COL     4   RATE     0.00000    
 AG WELL      6   LAYER   1   ROW     8   COL     5   RATE     0.00000    
 
 

   DIVERSION SEGMENTS     PERIOD    1   STEP   1
 
 

        SW IRRIGATION     PERIOD    1   STEP   1
 
 

        GW IRRIGATION     PERIOD    1   STEP   1
 
1
  VOLUMETRIC BUDGET FOR AGRICULTURAL FIELDS AT  END OF TIME STEP    1, STRESS PERIOD   1
  ------------------------------------------------------------------------------

     CUMULATIVE VOLUMES      L**3       RATES FOR THIS TIME STEP      L**3/T
     ------------------                 ------------------------

           IN:                                      IN:
           ---                                      ---
               AG WELLS  =           0.0000                 AG WELLS  =           0.0000
      DIVERSION SEGMENTS =           0.0000        DIVERSION SEGMENTS =           0.0000
           GW IRRIGATION =           0.0000             GW IRRIGATION =           0.0000
           SW IRRIGATION =           0.0000             SW IRRIGATION =           0.0000
        SYSTEM LOSSES GW =           0.0000          SYSTEM LOSSES GW =           0.0000
        SYSTEM LOSSES SW =           0.0000          SYSTEM LOSSES SW =           0.0000

                TOTAL IN =           0.0000                  TOTAL IN =           0.0000

          OUT:                                     OUT:
          ----                                     ----
               AG WELLS  =           0.0000                 AG WELLS  =           0.0000
      DIVERSION SEGMENTS =           0.0000        DIVERSION SEGMENTS =           0.0000
           GW IRRIGATION =           0.0000             GW IRRIGATION =           0.0000
           SW IRRIGATION =           0.0000             SW IRRIGATION =           0.0000
        SYSTEM LOSSES GW =           0.0000          SYSTEM LOSSES GW =           0.0000
        SYSTEM LOSSES SW =           0.0000          SYSTEM LOSSES SW =           0.0000

               TOTAL OUT =           0.0000                 TOTAL OUT =           0.0000

                IN - OUT =           0.0000                  IN - OUT =           0.0000

     PERCENT DISCREPANCY =           0.00         PERCENT DISCREPANCY =           0.00



1
              HEAD IN LAYER   1 AT END OF TIME STEP   1 IN STRESS PERIOD    1
  ---------------------------------------------------------------------------

           1       2       3       4       5       6       7       8       9      10
 ...................................................................................
   1  1032.36 1031.32 6999.00 6999.00 6999.00 6999.00 6999.00 6999.00 6999.00 6999.00
   2  1031.40 1030.17 1029.58 6999.00 6999.00 1030.68 1030.83 1030.79 6999.00 6999.00
   3  6999.00 1029.27 1028.96 1028.73 1029.28 1029.91 1030.40 1030.37 6999.00 6999.00
   4  1028.57 1028.53 1028.35 1028.17 1028.24 1028.30 1028.78 1029.83 1029.56 6999.00
   5  1028.13 1027.76 1027.59 1027.51 1027.61 1027.82 1027.99 1028.47 1029.10 1029.63
   6  1027.57 1027.02 1026.83 1026.81 1026.93 1027.26 1027.55 1028.08 1028.52 1029.45
   7  1027.07 1026.08 1025.92 1025.96 1026.14 1026.55 1026.98 1027.45 1027.96 6999.00
   8  6999.00 1024.71 1024.75 1024.91 1025.15 1025.65 1026.08 1026.80 1027.36 6999.00
   9  6999.00 1022.70 1023.03 1023.48 1023.88 1024.53 1025.05 1025.79 1026.91 6999.00
  10  6999.00 1019.87 1020.64 1021.69 1022.47 1023.49 1024.39 1025.46 1027.07 1027.71
  11  6999.00 1015.35 1016.78 1019.32 1020.96 1022.69 1024.22 1026.00 1028.19 6999.00
  12  1001.91 1007.94 1012.08 1016.04 1019.32 1022.30 1024.79 1028.19 1031.18 6999.00
  13   995.55 1000.38 1006.88 1012.86 1018.23 1022.75 1027.05 1031.79 1034.63 6999.00
  14  6999.00 1005.79 1008.88 1013.53 1018.29 1022.70 1027.60 1033.07 1037.48 6999.00
  15  6999.00 6999.00 1012.52 1015.24 1018.71 1021.73 6999.00 6999.00 6999.00 6999.00

 HEAD WILL BE SAVED ON UNIT   62 AT END OF TIME STEP    1, STRESS PERIOD    1
1
  VOLUMETRIC BUDGET FOR ENTIRE MODEL AT END OF TIME STEP    1, STRESS PERIOD   1
  ------------------------------------------------------------------------------

     CUMULATIVE VOLUMES      L**3       RATES FOR THIS TIME STEP      L**3/T
     ------------------                 ------------------------

           IN:                                      IN:
           ---                                      ---
             STORAGE     =           0.0000               STORAGE     =           0.0000
       CONSTANT HEAD     =           0.0000         CONSTANT HEAD     =           0.0000
     HEAD DEP BOUNDS     =       24677.5273       HEAD DEP BOUNDS     =           0.2856
      STREAM LEAKAGE     =      889333.8125        STREAM LEAKAGE     =          10.2932
        UZF RECHARGE     =       73223.9531          UZF RECHARGE     =           0.8475
               GW ET     =           0.0000                 GW ET     =           0.0000
     SURFACE LEAKAGE     =           0.0000       SURFACE LEAKAGE     =           0.0000
           AG WELLS      =           0.0000             AG WELLS      =           0.0000

                TOTAL IN =      987235.2500                  TOTAL IN =          11.4263

          OUT:                                     OUT:
          ----                                     ----
             STORAGE     =           0.0000               STORAGE     =           0.0000
       CONSTANT HEAD     =           0.0000         CONSTANT HEAD     =           0.0000
     HEAD DEP BOUNDS     =       24801.8652       HEAD DEP BOUNDS     =           0.2871
      STREAM LEAKAGE     =      962433.3125        STREAM LEAKAGE     =          11.1393
        UZF RECHARGE     =           0.0000          UZF RECHARGE     =           0.0000
               GW ET     =           0.0000                 GW ET     =           0.0000
     SURFACE LEAKAGE     =           0.0000       SURFACE LEAKAGE     =           0.0000
           AG WELLS      =           0.0000             AG WELLS      =           0.0000

               TOTAL OUT =      987235.1875                 TOTAL OUT =          11.4263

                IN - OUT =       6.2500E-02                  IN - OUT =       1.9073E-06

     PERCENT DISCREPANCY =           0.00         PERCENT DISCREPANCY =           0.00






         TIME SUMMARY AT END OF TIME STEP    1 IN STRESS PERIOD    1
                    SECONDS     MINUTES      HOURS       DAYS        YEARS
                    -----------------------------------------------------------
   TIME STEP LENGTH  86400.      1440.0      24.000      1.0000     2.73785E-03
 STRESS PERIOD TIME  86400.      1440.0      24.000      1.0000     2.73785E-03
         TOTAL TIME  86400.      1440.0      24.000      1.0000     2.73785E-03
1
1
                            STRESS PERIOD NO.    2, LENGTH =   2630000.    
                            -----------------------------------------------

                              NUMBER OF TIME STEPS =    30

                               MULTIPLIER FOR DELT =     1.000

                            INITIAL TIME STEP SIZE =   87666.66    

 REUSING NON-PARAMETER GHB CELLS FROM LAST STRESS PERIOD

      2 GHB CELLS

 REUSING STREAM SEGMENT DATA FROM LAST STRESS PERIOD



            AREAL INFILTRATION RATE
 READING ON UNIT   19 WITH FORMAT: (FREE)              

            1           2           3           4           5           6           7           8           9          10
 ........................................................................................................................
   1   1.0000E-10  2.0000E-10   0.000       0.000       0.000       0.000       0.000       0.000       0.000       0.000    
   2   2.0000E-10  1.0000E-10  2.0000E-10   0.000       0.000      8.0000E-10  8.0000E-10  5.0000E-10   0.000       0.000    
   3    0.000      5.0000E-10  1.0000E-10  1.0000E-10  8.0000E-10  8.0000E-10  5.0000E-10  5.0000E-10   0.000       0.000    
   4   8.0000E-10  5.0000E-10  1.0000E-10  1.0000E-10  1.0000E-10  1.0000E-10  1.0000E-10  1.0000E-10  2.0000E-10   0.000    
   5   8.0000E-10  5.0000E-10  1.0000E-10  1.0000E-10  1.0000E-10  1.0000E-10  1.0000E-10  1.0000E-10  1.0000E-10  1.0000E-10
   6   8.0000E-10  5.0000E-10  5.0000E-10  2.0000E-10  2.0000E-10  1.0000E-10  1.0000E-10  1.0000E-10  1.0000E-10  5.0000E-10
   7   8.0000E-10  5.0000E-10  5.0000E-10  2.0000E-10  2.0000E-10  1.0000E-10  1.0000E-10  2.0000E-10  2.0000E-10   0.000    
   8    0.000      5.0000E-10  5.0000E-10  2.0000E-10  2.0000E-10  1.0000E-10  1.0000E-10  2.0000E-10  5.0000E-10   0.000    
   9    0.000      5.0000E-10  5.0000E-10  2.0000E-10  2.0000E-10  1.0000E-10  1.0000E-10  2.0000E-10  5.0000E-10   0.000    
  10    0.000      5.0000E-10  5.0000E-10  2.0000E-10  2.0000E-10  1.0000E-10  1.0000E-10  2.0000E-10  5.0000E-10  8.0000E-10
  11    0.000      1.0000E-10  1.0000E-10  1.0000E-10  1.0000E-10  1.0000E-10  1.0000E-10  2.0000E-10  5.0000E-10   0.000    
  12   1.0000E-10  1.0000E-10  1.0000E-10  1.0000E-10  1.0000E-10  1.0000E-10  1.0000E-10  1.0000E-10  2.0000E-10   0.000    
  13   1.0000E-10  1.0000E-10  2.0000E-10  2.0000E-10  2.0000E-10  2.0000E-10  2.0000E-10  1.0000E-10  1.0000E-10   0.000    
  14    0.000      2.0000E-10  5.0000E-10  5.0000E-10  5.0000E-10  5.0000E-10  5.0000E-10  2.0000E-10  1.0000E-10   0.000    
  15    0.000       0.000      8.0000E-10  8.0000E-10  8.0000E-10  8.0000E-10   0.000       0.000       0.000       0.000    

                  ET RATE =  5.000000E-10

 USING ET EXTINCTION DEPTH FROM PREVIOUS STRESS PERIOD. CURRENT PERIOD IS:       2

 USING EXTINCTION WATER CONTENT FROM PREVIOUS STRESS PERIOD. CURRENT PERIOD IS:       2

 USING AIR ENTRY PRESSURE FROM PREVIOUS STRESS PERIOD. CURRENT PERIOD IS:       2

 USING ROOT PRESSURE HEAD FROM PREVIOUS STRESS PERIOD. CURRENT PERIOD IS:       2

 USING ROOT ACTIVITY FROM PREVIOUS STRESS PERIOD. CURRENT PERIOD IS:       2

 PROCESSING AG STRESS PERIOD DATA

 READING AG STRESS PERIOD DATA

 READING IRRIGATION SEGMENT

 READING IRRIGATION WELL

 READING SUPPLEMENTAL WELL

 END PROCESSING AG STRESS PERIOD DATA OPTIONS
 
 SOLVING FOR HEAD 
                                                   Max.-Head-Change                         Max.-Flux-Residual
  Residual-Control   Outer-Iter.   Inner-Iter.     Column Row Layer    Maximum-Head-Change  Column Row Layer    Maximum-Flux-Residual          L2-NORM 
          0                 1           2             4   13     1       0.4516090521E-02       4   13    1         0.2587981320E+00      0.5589996200E+00
          0                 2           2             4   13     1      -0.4346343863E-03       4   13    1        -0.2560894401E-01      0.5485536502E-01
          0                 3           1             4   13     1       0.2895109903E-04       4   13    1         0.1753708056E-02      0.3737779858E-02

    ------------------------------------------------
       NWT REQUIRED            3 OUTER ITERATIONS 
       AND A TOTAL OF          5 INNER ITERATIONS.
    ------------------------------------------------

 OUTPUT CONTROL FOR STRESS PERIOD    2   TIME STEP    1
    PRINT BUDGET
    PRINT HEAD FOR ALL LAYERS
    SAVE BUDGET
 UBDSV1 SAVING "         STORAGE" ON UNIT 102 AT TIME STEP  1, STRESS PERIOD   2
 UBDSV2 SAVING "   CONSTANT HEAD" ON UNIT 102 AT TIME STEP  1, STRESS PERIOD   2
 UBDSV1 SAVING "FLOW RIGHT FACE " ON UNIT 102 AT TIME STEP  1, STRESS PERIOD   2
 UBDSV1 SAVING "FLOW FRONT FACE " ON UNIT 102 AT TIME STEP  1, STRESS PERIOD   2

  HEAD DEP BOUNDS   PERIOD    2   STEP     1
 BOUNDARY      1   LAYER   1   ROW    13   COL     1   RATE   -0.287146    
 BOUNDARY      2   LAYER   1   ROW    14   COL     9   RATE    0.285621    



 STREAM LISTING     PERIOD      2   STEP        1

 LAYER ROW COL. STREAM  RCH.  FLOW INTO     FLOW TO   FLOW OUT OF   OVRLND.     DIRECT     STREAM       STREAM     STREAM     STREAM   STREAMBED  STREAMBED
                SEG.NO.  NO.  STRM. RCH.    AQUIFER    STRM. RCH.    RUNOFF     PRECIP       ET          HEAD       DEPTH      WIDTH   CONDCTNC.   GRADIENT

   1    1    1     1     1    1.6500E+01  1.9759E-01   1.6302E+01  0.000E+00  0.000E+00  0.000E+00  1.09409E+03  1.039E+00  1.087E+01  4.893E-02  1.346E+00
   1    2    2     1     2    1.6302E+01  3.0466E-01   1.5998E+01  0.000E+00  0.000E+00  0.000E+00  1.08909E+03  1.034E+00  1.079E+01  7.552E-02  1.345E+00
   1    3    3     1     3    1.5998E+01  2.5853E-01   1.5739E+01  0.000E+00  0.000E+00  0.000E+00  1.08345E+03  1.029E+00  1.070E+01  6.417E-02  1.343E+00
   1    3    4     1     4    1.5739E+01  2.3700E-01   1.5502E+01  0.000E+00  0.000E+00  0.000E+00  1.07843E+03  1.024E+00  1.061E+01  5.889E-02  1.341E+00
   1    4    5     2     1    1.3502E+01  2.9865E-01   1.3204E+01  0.000E+00  0.000E+00  0.000E+00  1.07276E+03  8.289E-01  1.200E+01  7.800E-02  1.276E+00
   1    5    6     2     2    1.3204E+01  2.2914E-01   1.2974E+01  0.000E+00  0.000E+00  0.000E+00  1.06733E+03  8.190E-01  1.200E+01  6.000E-02  1.273E+00
   1    6    6     2     3    1.2974E+01  2.2862E-01   1.2746E+01  0.000E+00  0.000E+00  0.000E+00  1.06260E+03  8.104E-01  1.200E+01  6.000E-02  1.270E+00
   1    7    6     2     4    1.2746E+01  2.2810E-01   1.2518E+01  0.000E+00  0.000E+00  0.000E+00  1.05788E+03  8.017E-01  1.200E+01  6.000E-02  1.267E+00
   1    8    6     2     5    1.2518E+01  2.2758E-01   1.2290E+01  0.000E+00  0.000E+00  0.000E+00  1.05315E+03  7.930E-01  1.200E+01  6.000E-02  1.264E+00
   1    3    5     3     1    2.0000E+00  2.8252E-01   1.7175E+00  0.000E+00  0.000E+00  0.000E+00  1.07555E+03  1.909E+00  9.636E+00  7.227E-02  1.955E+00
   1    3    6     3     2    1.7175E+00  2.4905E-01   1.4684E+00  0.000E+00  0.000E+00  0.000E+00  1.07264E+03  1.727E+00  8.909E+00  6.682E-02  1.864E+00
   1    3    7     3     3    1.4684E+00  1.9718E-01   1.2712E+00  0.000E+00  0.000E+00  0.000E+00  1.06987E+03  1.555E+00  8.218E+00  5.547E-02  1.777E+00
   1    4    8     3     4    1.2712E+00  2.2567E-01   1.0456E+00  0.000E+00  0.000E+00  0.000E+00  1.06682E+03  1.364E+00  7.455E+00  6.709E-02  1.682E+00
   1    5    8     3     5    1.0456E+00  1.5790E-01   8.8768E-01  0.000E+00  0.000E+00  0.000E+00  1.06362E+03  1.164E+00  6.655E+00  4.991E-02  1.582E+00
   1    6    8     3     6    8.8768E-01  5.5980E-02   8.3170E-01  0.000E+00  0.000E+00  0.000E+00  1.06158E+03  1.036E+00  6.145E+00  1.844E-02  1.518E+00
   1    5   10     4     1    1.0000E+01  9.0919E-02   9.9091E+00  0.000E+00  0.000E+00  0.000E+00  1.07836E+03  6.368E-01  1.000E+01  2.500E-02  1.212E+00
   1    5    9     4     2    9.9091E+00  1.8158E-01   9.7275E+00  0.000E+00  0.000E+00  0.000E+00  1.07154E+03  6.315E-01  1.000E+01  5.000E-02  1.211E+00
   1    6    8     4     3    9.7275E+00  1.2689E-01   9.6006E+00  0.000E+00  0.000E+00  0.000E+00  1.06381E+03  6.256E-01  1.000E+01  3.500E-02  1.209E+00
   1    6    8     5     1    1.0432E+01  2.2686E-01   1.0205E+01  0.000E+00  0.000E+00  0.000E+00  1.05868E+03  6.790E-01  1.542E+01  6.166E-02  1.226E+00
   1    7    7     5     2    1.0205E+01  2.7894E-01   9.9265E+00  0.000E+00  0.000E+00  0.000E+00  1.05417E+03  6.732E-01  1.519E+01  7.594E-02  1.224E+00
   1    8    7     5     3    9.9265E+00  1.9221E-01   9.7343E+00  0.000E+00  0.000E+00  0.000E+00  1.04992E+03  6.676E-01  1.497E+01  5.241E-02  1.223E+00
   1    8    6     5     4    9.7343E+00  1.3577E-01   9.5985E+00  0.000E+00  0.000E+00  0.000E+00  1.04691E+03  6.637E-01  1.482E+01  3.706E-02  1.221E+00
   1    9    6     6     1    2.1889E+01  2.4742E-01   2.1641E+01  0.000E+00  0.000E+00  0.000E+00  1.04385E+03  1.124E+00  1.200E+01  6.000E-02  1.375E+00
   1   10    7     6     2    2.1641E+01  2.4696E-01   2.1394E+01  0.000E+00  0.000E+00  0.000E+00  1.03930E+03  1.116E+00  1.200E+01  6.000E-02  1.372E+00
   1   11    7     6     3    2.1394E+01  2.4650E-01   2.1148E+01  0.000E+00  0.000E+00  0.000E+00  1.03474E+03  1.108E+00  1.200E+01  6.000E-02  1.369E+00
   1   12    7     6     4    2.1148E+01  2.4603E-01   2.0902E+01  0.000E+00  0.000E+00  0.000E+00  1.03019E+03  1.101E+00  1.200E+01  6.000E-02  1.367E+00
   1   13    7     6     5    2.0902E+01 -1.0396E-02   2.0912E+01  0.000E+00  0.000E+00  0.000E+00  1.02701E+03  1.097E+00  1.200E+01  2.400E-01 -1.444E-02
   1   14    9     7     1    1.5000E+02  1.3338E+00   1.4867E+02  0.000E+00  0.000E+00  0.000E+00  1.03987E+03  2.288E+00  5.529E+01  5.593E-01  7.949E-01
   1   13    8     7     2    1.4867E+02  1.8355E+00   1.4683E+02  0.000E+00  0.000E+00  0.000E+00  1.03478E+03  2.279E+00  5.526E+01  6.148E-01  9.952E-01
   1   13    7     7     3    1.4683E+02  1.4746E+00   1.4536E+02  0.000E+00  0.000E+00  0.000E+00  1.02969E+03  2.270E+00  5.522E+01  5.585E-01  8.802E-01
   1   13    6     8     1    1.6627E+02  8.8653E-01   1.6538E+02  0.000E+00  0.000E+00  0.000E+00  1.02480E+03  2.925E+00  4.241E+01  4.322E-01  6.838E-01
   1   13    5     8     2    1.6538E+02  1.3805E-01   1.6524E+02  0.000E+00  0.000E+00  0.000E+00  1.01855E+03  2.921E+00  4.236E+01  4.317E-01  1.066E-01
   1   13    4     8     3    1.6524E+02 -2.4329E+00   1.6768E+02  0.000E+00  0.000E+00  0.000E+00  1.01230E+03  2.929E+00  4.247E+01  4.328E+00 -1.874E-01
   1   13    3     8     4    1.6768E+02 -3.5424E+00   1.7122E+02  0.000E+00  0.000E+00  0.000E+00  1.00607E+03  2.949E+00  4.275E+01  4.357E+00 -2.710E-01
   1   13    2     8     5    1.7122E+02 -2.3687E+00   1.7359E+02  0.000E+00  0.000E+00  0.000E+00  9.99843E+02  2.968E+00  4.303E+01  4.385E+00 -1.800E-01
   1   13    1     8     6    1.7359E+02 -1.8506E+00   1.7544E+02  0.000E+00  0.000E+00  0.000E+00  9.94856E+02  2.981E+00  4.323E+01  2.643E+00 -2.334E-01
   1    8    6     9     1    0.0000E+00  0.0000E+00   0.0000E+00  0.000E+00  0.000E+00  0.000E+00  1.07875E+03  0.000E+00  4.000E+00  0.000E+00  1.000E+00
   1    8    5     9     2    0.0000E+00  0.0000E+00   0.0000E+00  0.000E+00  0.000E+00  0.000E+00  1.07825E+03  0.000E+00  4.000E+00  0.000E+00  1.000E+00



 UBDSV3 SAVING "           GW ET" ON UNIT  61 AT TIME STEP  1, STRESS PERIOD   2
 UBDSV3 SAVING "    UZF RECHARGE" ON UNIT  61 AT TIME STEP  1, STRESS PERIOD   2
 UBDSV3 SAVING " SURFACE LEAKAGE" ON UNIT  61 AT TIME STEP  1, STRESS PERIOD   2
 UBDSV3 SAVING "       HORT+DUNN" ON UNIT  61 AT TIME STEP  1, STRESS PERIOD   2
 UBDSV3 SAVING "  STORAGE CHANGE" ON UNIT  61 AT TIME STEP  1, STRESS PERIOD   2


UNSATURATED ZONE PACKAGE VOLUMETRIC BUDGET FOR  TIME STEP     1 STRESS PERIOD    2
  ------------------------------------------------------------------------------



     CUMULATIVE VOLUMES      L**3       RATES FOR THIS TIME STEP      L**3/T
     ------------------                 ------------------------

           IN:                                      IN:
           ---                                      ---
        INFILTRATION =      147521.4958          INFILTRATION =           0.8475

          OUT:                                     OUT:
          ----                                     ----
              UZF ET =       65735.6246                UZF ET =           0.7498
        UZF RECHARGE =       73224.0000          UZF RECHARGE =       0.0000E+00

            IN - OUT =        8561.8711              IN - OUT =       9.7664E-02

          STORAGE:                                 STORAGE:
          --------                                 --------
      STORAGE CHANGE =        8561.8722        STORAGE CHANGE =       9.7664E-02

 PERCENT DISCREPANCY IS DIFFERENCE BETWEEN IN-OUT MINUS CHANGE IN STORAGE
 DIVIDED BY THE AVERAGE OF IN AND OUT TIMES 100

 PERCENT DISCREPANCY =           0.00     PERCENT DISCREPANCY =           0.00






 

            AG WELLS      PERIOD    2   STEP   1
 AG WELL      1   LAYER   1   ROW     6   COL     4   RATE     0.00000    
 AG WELL      2   LAYER   1   ROW     6   COL     5   RATE     0.00000    
 AG WELL      3   LAYER   1   ROW     7   COL     4   RATE     0.00000    
 AG WELL      4   LAYER   1   ROW     7   COL     5   RATE     0.00000    
 AG WELL      5   LAYER   1   ROW     8   COL     4   RATE     0.00000    
 AG WELL      6   LAYER   1   ROW     8   COL     5   RATE     0.00000    
 
 

   DIVERSION SEGMENTS     PERIOD    2   STEP   1
 
 

        SW IRRIGATION     PERIOD    2   STEP   1
 
 

        GW IRRIGATION     PERIOD    2   STEP   1
 
1
  VOLUMETRIC BUDGET FOR AGRICULTURAL FIELDS AT  END OF TIME STEP    1, STRESS PERIOD   2
  ------------------------------------------------------------------------------

     CUMULATIVE VOLUMES      L**3       RATES FOR THIS TIME STEP      L**3/T
     ------------------                 ------------------------

           IN:                                      IN:
           ---                                      ---
               AG WELLS  =           0.0000                 AG WELLS  =           0.0000
      DIVERSION SEGMENTS =           0.0000        DIVERSION SEGMENTS =           0.0000
           GW IRRIGATION =           0.0000             GW IRRIGATION =           0.0000
           SW IRRIGATION =           0.0000             SW IRRIGATION =           0.0000
        SYSTEM LOSSES GW =           0.0000          SYSTEM LOSSES GW =           0.0000
        SYSTEM LOSSES SW =           0.0000          SYSTEM LOSSES SW =           0.0000

                TOTAL IN =           0.0000                  TOTAL IN =           0.0000

          OUT:                                     OUT:
          ----                                     ----
               AG WELLS  =           0.0000                 AG WELLS  =           0.0000
      DIVERSION SEGMENTS =           0.0000        DIVERSION SEGMENTS =           0.0000
           GW IRRIGATION =           0.0000             GW IRRIGATION =           0.0000
           SW IRRIGATION =           0.0000             SW IRRIGATION =           0.0000
        SYSTEM LOSSES GW =           0.0000          SYSTEM LOSSES GW =           0.0000
        SYSTEM LOSSES SW =           0.0000          SYSTEM LOSSES SW =           0.0000

               TOTAL OUT =           0.0000                 TOTAL OUT =           0.0000

                IN - OUT =           0.0000                  IN - OUT =           0.0000

     PERCENT DISCREPANCY =           0.00         PERCENT DISCREPANCY =           0.00



1
              HEAD IN LAYER   1 AT END OF TIME STEP   1 IN STRESS PERIOD    2
  ---------------------------------------------------------------------------

           1       2       3       4       5       6       7       8       9      10
 ...................................................................................
   1  1032.36 1031.32 6999.00 6999.00 6999.00 6999.00 6999.00 6999.00 6999.00 6999.00
   2  1031.40 1030.17 1029.58 6999.00 6999.00 1030.68 1030.83 1030.79 6999.00 6999.00
   3  6999.00 1029.27 1028.96 1028.74 1029.28 1029.91 1030.40 1030.37 6999.00 6999.00
   4  1028.57 1028.53 1028.35 1028.17 1028.24 1028.30 1028.78 1029.83 1029.56 6999.00
   5  1028.13 1027.76 1027.59 1027.51 1027.61 1027.82 1027.99 1028.47 1029.10 1029.63
   6  1027.57 1027.02 1026.83 1026.81 1026.93 1027.26 1027.55 1028.08 1028.52 1029.45
   7  1027.07 1026.08 1025.92 1025.96 1026.14 1026.55 1026.98 1027.45 1027.96 6999.00
   8  6999.00 1024.71 1024.75 1024.91 1025.15 1025.65 1026.08 1026.80 1027.36 6999.00
   9  6999.00 1022.70 1023.03 1023.48 1023.88 1024.53 1025.05 1025.79 1026.91 6999.00
  10  6999.00 1019.87 1020.64 1021.69 1022.47 1023.49 1024.39 1025.46 1027.07 1027.71
  11  6999.00 1015.35 1016.78 1019.32 1020.96 1022.69 1024.22 1026.00 1028.19 6999.00
  12  1001.91 1007.94 1012.08 1016.04 1019.32 1022.30 1024.79 1028.19 1031.18 6999.00
  13   995.56 1000.38 1006.89 1012.87 1018.23 1022.75 1027.05 1031.79 1034.63 6999.00
  14  6999.00 1005.79 1008.88 1013.53 1018.29 1022.70 1027.60 1033.07 1037.48 6999.00
  15  6999.00 6999.00 1012.52 1015.24 1018.71 1021.73 6999.00 6999.00 6999.00 6999.00
1
  VOLUMETRIC BUDGET FOR ENTIRE MODEL AT END OF TIME STEP    1, STRESS PERIOD   2
  ------------------------------------------------------------------------------

     CUMULATIVE VOLUMES      L**3       RATES FOR THIS TIME STEP      L**3/T
     ------------------                 ------------------------

           IN:                                      IN:
           ---                                      ---
             STORAGE     =       66736.4922               STORAGE     =           0.7613
       CONSTANT HEAD     =           0.0000         CONSTANT HEAD     =           0.0000
     HEAD DEP BOUNDS     =       49716.9844       HEAD DEP BOUNDS     =           0.2856
      STREAM LEAKAGE     =     1877049.7500        STREAM LEAKAGE     =          11.2667
        UZF RECHARGE     =       73223.9531          UZF RECHARGE     =           0.0000
               GW ET     =           0.0000                 GW ET     =           0.0000
     SURFACE LEAKAGE     =           0.0000       SURFACE LEAKAGE     =           0.0000
           AG WELLS      =           0.0000             AG WELLS      =           0.0000

                TOTAL IN =     2066727.2500                  TOTAL IN =          12.3136

          OUT:                                     OUT:
          ----                                     ----
             STORAGE     =      159711.2812               STORAGE     =           1.8218
       CONSTANT HEAD     =           0.0000         CONSTANT HEAD     =           0.0000
     HEAD DEP BOUNDS     =       49975.0312       HEAD DEP BOUNDS     =           0.2871
      STREAM LEAKAGE     =     1857066.8750        STREAM LEAKAGE     =          10.2049
        UZF RECHARGE     =           0.0000          UZF RECHARGE     =           0.0000
               GW ET     =           0.0000                 GW ET     =           0.0000
     SURFACE LEAKAGE     =           0.0000       SURFACE LEAKAGE     =           0.0000
           AG WELLS      =           0.0000             AG WELLS      =           0.0000

               TOTAL OUT =     2066753.2500                 TOTAL OUT =          12.3139

                IN - OUT =         -26.0000                  IN - OUT =      -2.9755E-04

     PERCENT DISCREPANCY =          -0.00         PERCENT DISCREPANCY =          -0.00






         TIME SUMMARY AT END OF TIME STEP    1 IN STRESS PERIOD    2
                    SECONDS     MINUTES      HOURS       DAYS        YEARS
                    -----------------------------------------------------------
   TIME STEP LENGTH  87667.      1461.1      24.352      1.0147     2.77799E-03
 STRESS PERIOD TIME  87667.      1461.1      24.352      1.0147     2.77799E-03
         TOTAL TIME 1.74067E+05  2901.1      48.352      2.0147     5.51584E-03
1
 
 SOLVING FOR HEAD 
                                                   Max.-Head-Change                         Max.-Flux-Residual
  Residual-Control   Outer-Iter.   Inner-Iter.     Column Row Layer    Maximum-Head-Change  Column Row Layer    Maximum-Flux-Residual          L2-NORM 
          0                 1           2             2   13     1       0.4141604067E-02       4   13    1         0.2347421644E+00      0.5289478646E+00
          0                 2           2             4   13     1      -0.3943921141E-03       4   13    1        -0.2322508993E-01      0.5195277974E-01
          0                 3           1             4   13     1       0.2644842864E-04       4   13    1         0.1601340582E-02      0.3548358795E-02

    ------------------------------------------------
       NWT REQUIRED            3 OUTER ITERATIONS 
       AND A TOTAL OF          5 INNER ITERATIONS.
    ------------------------------------------------

 NO OUTPUT CONTROL FOR STRESS PERIOD    2   TIME STEP    2
 
 SOLVING FOR HEAD 
                                                   Max.-Head-Change                         Max.-Flux-Residual
  Residual-Control   Outer-Iter.   Inner-Iter.     Column Row Layer    Maximum-Head-Change  Column Row Layer    Maximum-Flux-Residual          L2-NORM 
          0                 1           2             2   13     1       0.3838451722E-02       2   13    1         0.2157898443E+00      0.5018947223E+00
          0                 2           2             4   13     1      -0.3580860464E-03       4   13    1        -0.2107510957E-01      0.4934276730E-01
          0                 3           1             4   13     1       0.2403484716E-04       4   13    1         0.1454379058E-02      0.3375977545E-02

    ------------------------------------------------
       NWT REQUIRED            3 OUTER ITERATIONS 
       AND A TOTAL OF          5 INNER ITERATIONS.
    ------------------------------------------------

 NO OUTPUT CONTROL FOR STRESS PERIOD    2   TIME STEP    3
 
 SOLVING FOR HEAD 
                                                   Max.-Head-Change                         Max.-Flux-Residual
  Residual-Control   Outer-Iter.   Inner-Iter.     Column Row Layer    Maximum-Head-Change  Column Row Layer    Maximum-Flux-Residual          L2-NORM 
          0                 1           2             2   13     1       0.3557559587E-02       2   13    1         0.1999768401E+00      0.4775469808E+00
          0                 2           2             2   13     1      -0.3313317856E-03       2   13    1        -0.1914529669E-01      0.4698879784E-01
          0                 3           1             4   13     1       0.2180721347E-04       4   13    1         0.1318793073E-02      0.3217700760E-02

    ------------------------------------------------
       NWT REQUIRED            3 OUTER ITERATIONS 
       AND A TOTAL OF          5 INNER ITERATIONS.
    ------------------------------------------------

 NO OUTPUT CONTROL FOR STRESS PERIOD    2   TIME STEP    4
 
 SOLVING FOR HEAD 
                                                   Max.-Head-Change                         Max.-Flux-Residual
  Residual-Control   Outer-Iter.   Inner-Iter.     Column Row Layer    Maximum-Head-Change  Column Row Layer    Maximum-Flux-Residual          L2-NORM 
          0                 1           2             2   13     1       0.3297604685E-02       2   13    1         0.1853435845E+00      0.4556415430E+00
          0                 2           2             2    2     1      -0.3075700726E-03       2   13    1        -0.1774964558E-01      0.4487548817E-01
          0                 3           1             2    2     1       0.2094437751E-04       4   13    1         0.1198174047E-02      0.3076929403E-02

    ------------------------------------------------
       NWT REQUIRED            3 OUTER ITERATIONS 
       AND A TOTAL OF          5 INNER ITERATIONS.
    ------------------------------------------------

 NO OUTPUT CONTROL FOR STRESS PERIOD    2   TIME STEP    5
 
 SOLVING FOR HEAD 
                                                   Max.-Head-Change                         Max.-Flux-Residual
  Residual-Control   Outer-Iter.   Inner-Iter.     Column Row Layer    Maximum-Head-Change  Column Row Layer    Maximum-Flux-Residual          L2-NORM 
          0                 1           2             2    2     1       0.3137740412E-02       2   13    1         0.1717992485E+00      0.4359362745E+00
          0                 2           2             2    2     1      -0.3052170142E-03       2   13    1        -0.1645865069E-01      0.4297630026E-01
          0                 3           1             2    2     1       0.2078414308E-04       2    2    1         0.1148336413E-02      0.2950597531E-02

    ------------------------------------------------
       NWT REQUIRED            3 OUTER ITERATIONS 
       AND A TOTAL OF          5 INNER ITERATIONS.
    ------------------------------------------------

 NO OUTPUT CONTROL FOR STRESS PERIOD    2   TIME STEP    6
 
 SOLVING FOR HEAD 
                                                   Max.-Head-Change                         Max.-Flux-Residual
  Residual-Control   Outer-Iter.   Inner-Iter.     Column Row Layer    Maximum-Head-Change  Column Row Layer    Maximum-Flux-Residual          L2-NORM 
          0                 1           2             2    2     1       0.3113901219E-02       2    2    1         0.1627934591E+00      0.4182063023E+00
          0                 2           2             2    2     1      -0.3028981017E-03       2    2    1        -0.1627937418E-01      0.4126813743E-01
          0                 3           1             2    2     1       0.2062623349E-04       2    2    1         0.1139556415E-02      0.2837809020E-02

    ------------------------------------------------
       NWT REQUIRED            3 OUTER ITERATIONS 
       AND A TOTAL OF          5 INNER ITERATIONS.
    ------------------------------------------------

 NO OUTPUT CONTROL FOR STRESS PERIOD    2   TIME STEP    7
 
 SOLVING FOR HEAD 
                                                   Max.-Head-Change                         Max.-Flux-Residual
  Residual-Control   Outer-Iter.   Inner-Iter.     Column Row Layer    Maximum-Head-Change  Column Row Layer    Maximum-Flux-Residual          L2-NORM 
          0                 1           2             2    2     1       0.3090495551E-02       2    2    1         0.1615619536E+00      0.4022459845E+00
          0                 2           2             2    2     1      -0.3006213598E-03       2    2    1        -0.1615622306E-01      0.3973071059E-01
          0                 3           1             2    2     1       0.2047119617E-04       2    2    1         0.1130935852E-02      0.2735708798E-02

    ------------------------------------------------
       NWT REQUIRED            3 OUTER ITERATIONS 
       AND A TOTAL OF          5 INNER ITERATIONS.
    ------------------------------------------------

 NO OUTPUT CONTROL FOR STRESS PERIOD    2   TIME STEP    8
 
 SOLVING FOR HEAD 
                                                   Max.-Head-Change                         Max.-Flux-Residual
  Residual-Control   Outer-Iter.   Inner-Iter.     Column Row Layer    Maximum-Head-Change  Column Row Layer    Maximum-Flux-Residual          L2-NORM 
          0                 1           2             2    2     1       0.3067343233E-02       2    2    1         0.1603438620E+00      0.3878711226E+00
          0                 2           2             2    2     1      -0.2983692623E-03       2    2    1        -0.1603441335E-01      0.3834542087E-01
          0                 3           1             2    2     1       0.2031783686E-04       2    2    1         0.1122409173E-02      0.2642671797E-02

    ------------------------------------------------
       NWT REQUIRED            3 OUTER ITERATIONS 
       AND A TOTAL OF          5 INNER ITERATIONS.
    ------------------------------------------------

 NO OUTPUT CONTROL FOR STRESS PERIOD    2   TIME STEP    9
 
 SOLVING FOR HEAD 
                                                   Max.-Head-Change                         Max.-Flux-Residual
  Residual-Control   Outer-Iter.   Inner-Iter.     Column Row Layer    Maximum-Head-Change  Column Row Layer    Maximum-Flux-Residual          L2-NORM 
          0                 1           2             2    2     1       0.3044526459E-02       2    2    1         0.1591434383E+00      0.3749194505E+00
          0                 2           2             2    2     1      -0.2961498038E-03       2    2    1        -0.1591437041E-01      0.3709815521E-01
          0                 3           1             2    2     1       0.2016669991E-04       2    2    1         0.1114006163E-02      0.2560264876E-02

    ------------------------------------------------
       NWT REQUIRED            3 OUTER ITERATIONS 
       AND A TOTAL OF          5 INNER ITERATIONS.
    ------------------------------------------------

 NO OUTPUT CONTROL FOR STRESS PERIOD    2   TIME STEP   10
 
 SOLVING FOR HEAD 
                                                   Max.-Head-Change                         Max.-Flux-Residual
  Residual-Control   Outer-Iter.   Inner-Iter.     Column Row Layer    Maximum-Head-Change  Column Row Layer    Maximum-Flux-Residual          L2-NORM 
          0                 1           2             2    2     1       0.3021953028E-02       2    2    1         0.1579558800E+00      0.3632348403E+00
          0                 2           2             2    2     1      -0.2939540159E-03       2    2    1        -0.1579561404E-01      0.3597264143E-01
          0                 3           1             2    2     1       0.2001717447E-04       2    2    1         0.1105693200E-02      0.2485321935E-02

    ------------------------------------------------
       NWT REQUIRED            3 OUTER ITERATIONS 
       AND A TOTAL OF          5 INNER ITERATIONS.
    ------------------------------------------------

 NO OUTPUT CONTROL FOR STRESS PERIOD    2   TIME STEP   11
 
 SOLVING FOR HEAD 
                                                   Max.-Head-Change                         Max.-Flux-Residual
  Residual-Control   Outer-Iter.   Inner-Iter.     Column Row Layer    Maximum-Head-Change  Column Row Layer    Maximum-Flux-Residual          L2-NORM 
          0                 1           2             2    2     1       0.2999790039E-02       2    2    1         0.1567898805E+00      0.3526755102E+00
          0                 2           2             2    2     1      -0.2917981541E-03       2    2    1        -0.1567901358E-01      0.3495648231E-01
          0                 3           1             2    2     1       0.1987036864E-04       2    2    1         0.1097531184E-02      0.2417810200E-02

    ------------------------------------------------
       NWT REQUIRED            3 OUTER ITERATIONS 
       AND A TOTAL OF          5 INNER ITERATIONS.
    ------------------------------------------------

 NO OUTPUT CONTROL FOR STRESS PERIOD    2   TIME STEP   12
 
 SOLVING FOR HEAD 
                                                   Max.-Head-Change                         Max.-Flux-Residual
  Residual-Control   Outer-Iter.   Inner-Iter.     Column Row Layer    Maximum-Head-Change  Column Row Layer    Maximum-Flux-Residual          L2-NORM 
          0                 1           2             2    2     1       0.2977861985E-02       2    2    1         0.1556363428E+00      0.3431290732E+00
          0                 2           2             2    2     1      -0.2896651447E-03       2    2    1        -0.1556365931E-01      0.3403420194E-01
          0                 3           1             2    2     1       0.1972511894E-04       2    2    1         0.1089456382E-02      0.2356634596E-02

    ------------------------------------------------
       NWT REQUIRED            3 OUTER ITERATIONS 
       AND A TOTAL OF          5 INNER ITERATIONS.
    ------------------------------------------------

 NO OUTPUT CONTROL FOR STRESS PERIOD    2   TIME STEP   13
 
 SOLVING FOR HEAD 
                                                   Max.-Head-Change                         Max.-Flux-Residual
  Residual-Control   Outer-Iter.   Inner-Iter.     Column Row Layer    Maximum-Head-Change  Column Row Layer    Maximum-Flux-Residual          L2-NORM 
          0                 1           2             2    2     1       0.2956249451E-02       2    2    1         0.1544993958E+00      0.3344812589E+00
          0                 2           2             2    2     1      -0.2875628271E-03       2    2    1        -0.1544996412E-01      0.3320172279E-01
          0                 3           1             2    2     1       0.1958195883E-04       2    2    1         0.1081497722E-02      0.2301493628E-02

    ------------------------------------------------
       NWT REQUIRED            3 OUTER ITERATIONS 
       AND A TOTAL OF          5 INNER ITERATIONS.
    ------------------------------------------------

 NO OUTPUT CONTROL FOR STRESS PERIOD    2   TIME STEP   14
 
 SOLVING FOR HEAD 
                                                   Max.-Head-Change                         Max.-Flux-Residual
  Residual-Control   Outer-Iter.   Inner-Iter.     Column Row Layer    Maximum-Head-Change  Column Row Layer    Maximum-Flux-Residual          L2-NORM 
          0                 1           2             2    2     1       0.2934946924E-02       2    2    1         0.1533788083E+00      0.3266290391E+00
          0                 2           2             2    2     1      -0.2854906645E-03       2    2    1        -0.1533790486E-01      0.3244578659E-01
          0                 3           1             2    2     1       0.1944085210E-04       2    2    1         0.1073653580E-02      0.2253271663E-02

    ------------------------------------------------
       NWT REQUIRED            3 OUTER ITERATIONS 
       AND A TOTAL OF          5 INNER ITERATIONS.
    ------------------------------------------------

 NO OUTPUT CONTROL FOR STRESS PERIOD    2   TIME STEP   15
 
 SOLVING FOR HEAD 
                                                   Max.-Head-Change                         Max.-Flux-Residual
  Residual-Control   Outer-Iter.   Inner-Iter.     Column Row Layer    Maximum-Head-Change  Column Row Layer    Maximum-Flux-Residual          L2-NORM 
          0                 1           2             2    2     1       0.2913949701E-02       2    2    1         0.1522742942E+00      0.3194883970E+00
          0                 2           2             2    2     1      -0.2834482001E-03       2    2    1        -0.1522745299E-01      0.3175458754E-01
          0                 3           1             2    2     1       0.1930176821E-04       2    2    1         0.1065921939E-02      0.2202108134E-02

    ------------------------------------------------
       NWT REQUIRED            3 OUTER ITERATIONS 
       AND A TOTAL OF          5 INNER ITERATIONS.
    ------------------------------------------------

 NO OUTPUT CONTROL FOR STRESS PERIOD    2   TIME STEP   16
 
 SOLVING FOR HEAD 
                                                   Max.-Head-Change                         Max.-Flux-Residual
  Residual-Control   Outer-Iter.   Inner-Iter.     Column Row Layer    Maximum-Head-Change  Column Row Layer    Maximum-Flux-Residual          L2-NORM 
          0                 1           2             2    2     1       0.2893252802E-02       2    2    1         0.1511856099E+00      0.3129773638E+00
          0                 2           2             2    2     1      -0.2814349494E-03       2    2    1        -0.1511858410E-01      0.3112425761E-01
          0                 3           1             2    2     1       0.1916467332E-04       2    2    1         0.1058301126E-02      0.2162372807E-02

    ------------------------------------------------
       NWT REQUIRED            3 OUTER ITERATIONS 
       AND A TOTAL OF          5 INNER ITERATIONS.
    ------------------------------------------------

 NO OUTPUT CONTROL FOR STRESS PERIOD    2   TIME STEP   17
 
 SOLVING FOR HEAD 
                                                   Max.-Head-Change                         Max.-Flux-Residual
  Residual-Control   Outer-Iter.   Inner-Iter.     Column Row Layer    Maximum-Head-Change  Column Row Layer    Maximum-Flux-Residual          L2-NORM 
          0                 1           2             2    2     1       0.2872764618E-02       2    2    1         0.1501079641E+00      0.3070291294E+00
          0                 2           2             2    2     1      -0.2794420010E-03       2    2    1        -0.1501081909E-01      0.3054880097E-01
          0                 3           1             2    2     1       0.1902896085E-04       2    2    1         0.1050757575E-02      0.2123802106E-02

    ------------------------------------------------
       NWT REQUIRED            3 OUTER ITERATIONS 
       AND A TOTAL OF          5 INNER ITERATIONS.
    ------------------------------------------------

 NO OUTPUT CONTROL FOR STRESS PERIOD    2   TIME STEP   18
 
 SOLVING FOR HEAD 
                                                   Max.-Head-Change                         Max.-Flux-Residual
  Residual-Control   Outer-Iter.   Inner-Iter.     Column Row Layer    Maximum-Head-Change  Column Row Layer    Maximum-Flux-Residual          L2-NORM 
          0                 1           2             2    2     1       0.2852655220E-02       2    2    1         0.1490502058E+00      0.3015797110E+00
          0                 2           2             2    2     1      -0.2774858982E-03       2    2    1        -0.1490504280E-01      0.3002118470E-01
          0                 3           1             2    2     1       0.1889575781E-04       2    2    1         0.1043353232E-02      0.2088771625E-02

    ------------------------------------------------
       NWT REQUIRED            3 OUTER ITERATIONS 
       AND A TOTAL OF          5 INNER ITERATIONS.
    ------------------------------------------------

 NO OUTPUT CONTROL FOR STRESS PERIOD    2   TIME STEP   19
 
 SOLVING FOR HEAD 
                                                   Max.-Head-Change                         Max.-Flux-Residual
  Residual-Control   Outer-Iter.   Inner-Iter.     Column Row Layer    Maximum-Head-Change  Column Row Layer    Maximum-Flux-Residual          L2-NORM 
          0                 1           2             2    2     1       0.2832744979E-02       2    2    1         0.1480030213E+00      0.2965743403E+00
          0                 2           2             2    2     1      -0.2755491682E-03       2    2    1        -0.1480032393E-01      0.2953617810E-01
          0                 3           1             2    2     1       0.1876387376E-04       2    2    1         0.1036022913E-02      0.2056254546E-02

    ------------------------------------------------
       NWT REQUIRED            3 OUTER ITERATIONS 
       AND A TOTAL OF          5 INNER ITERATIONS.
    ------------------------------------------------

 NO OUTPUT CONTROL FOR STRESS PERIOD    2   TIME STEP   20
 
 SOLVING FOR HEAD 
                                                   Max.-Head-Change                         Max.-Flux-Residual
  Residual-Control   Outer-Iter.   Inner-Iter.     Column Row Layer    Maximum-Head-Change  Column Row Layer    Maximum-Flux-Residual          L2-NORM 
          0                 1           2             2    2     1       0.2813117412E-02       2    2    1         0.1469706957E+00      0.2919606691E+00
          0                 2           2             2    2     1      -0.2736399349E-03       2    2    1        -0.1469709095E-01      0.2908721195E-01
          0                 3           1             2    2     1       0.1863386204E-04       2    2    1         0.1028796608E-02      0.2025392134E-02

    ------------------------------------------------
       NWT REQUIRED            3 OUTER ITERATIONS 
       AND A TOTAL OF          5 INNER ITERATIONS.
    ------------------------------------------------

 NO OUTPUT CONTROL FOR STRESS PERIOD    2   TIME STEP   21
 
 SOLVING FOR HEAD 
                                                   Max.-Head-Change                         Max.-Flux-Residual
  Residual-Control   Outer-Iter.   Inner-Iter.     Column Row Layer    Maximum-Head-Change  Column Row Layer    Maximum-Flux-Residual          L2-NORM 
          0                 1           2             2    2     1       0.2793767597E-02       2    2    1         0.1459530265E+00      0.2876717450E+00
          0                 2           2             2    2     1      -0.2717577197E-03       2    2    1        -0.1459532363E-01      0.2864800425E-01
          0                 3           1             2    2     1       0.1850569044E-04       2    2    1         0.1021672912E-02      0.1996967620E-02

    ------------------------------------------------
       NWT REQUIRED            3 OUTER ITERATIONS 
       AND A TOTAL OF          5 INNER ITERATIONS.
    ------------------------------------------------

 NO OUTPUT CONTROL FOR STRESS PERIOD    2   TIME STEP   22
 
 SOLVING FOR HEAD 
                                                   Max.-Head-Change                         Max.-Flux-Residual
  Residual-Control   Outer-Iter.   Inner-Iter.     Column Row Layer    Maximum-Head-Change  Column Row Layer    Maximum-Flux-Residual          L2-NORM 
          0                 1           2             2    2     1       0.2774691381E-02       2    2    1         0.1449497585E+00      0.2837507840E+00
          0                 2           2             2    2     1      -0.2699021179E-03       2    2    1        -0.1449499642E-01      0.2829013869E-01
          0                 3           1             2    2     1       0.1837933082E-04       2    2    1         0.1014650006E-02      0.1972719293E-02

    ------------------------------------------------
       NWT REQUIRED            3 OUTER ITERATIONS 
       AND A TOTAL OF          5 INNER ITERATIONS.
    ------------------------------------------------

 NO OUTPUT CONTROL FOR STRESS PERIOD    2   TIME STEP   23
 
 SOLVING FOR HEAD 
                                                   Max.-Head-Change                         Max.-Flux-Residual
  Residual-Control   Outer-Iter.   Inner-Iter.     Column Row Layer    Maximum-Head-Change  Column Row Layer    Maximum-Flux-Residual          L2-NORM 
          0                 1           2             2    2     1       0.2755889406E-02       2    2    1         0.1439609219E+00      0.2800863817E+00
          0                 2           2             2    2     1      -0.2680731924E-03       2    2    1        -0.1439611239E-01      0.2793275682E-01
          0                 3           1             2    2     1       0.1825478743E-04       2    2    1         0.1007728093E-02      0.1948629738E-02

    ------------------------------------------------
       NWT REQUIRED            3 OUTER ITERATIONS 
       AND A TOTAL OF          5 INNER ITERATIONS.
    ------------------------------------------------

 NO OUTPUT CONTROL FOR STRESS PERIOD    2   TIME STEP   24
 
 SOLVING FOR HEAD 
                                                   Max.-Head-Change                         Max.-Flux-Residual
  Residual-Control   Outer-Iter.   Inner-Iter.     Column Row Layer    Maximum-Head-Change  Column Row Layer    Maximum-Flux-Residual          L2-NORM 
          0                 1           2             2    2     1       0.2737260761E-02       2    2    1         0.1429812797E+00      0.2766706518E+00
          0                 2           2             2    2     1      -0.2662611273E-03       2    2    1        -0.1429814778E-01      0.2759995882E-01
          0                 3           1             2    2     1       0.1813139261E-04       2    2    1         0.1000870577E-02      0.1925853957E-02

    ------------------------------------------------
       NWT REQUIRED            3 OUTER ITERATIONS 
       AND A TOTAL OF          5 INNER ITERATIONS.
    ------------------------------------------------

 NO OUTPUT CONTROL FOR STRESS PERIOD    2   TIME STEP   25
 
 SOLVING FOR HEAD 
                                                   Max.-Head-Change                         Max.-Flux-Residual
  Residual-Control   Outer-Iter.   Inner-Iter.     Column Row Layer    Maximum-Head-Change  Column Row Layer    Maximum-Flux-Residual          L2-NORM 
          0                 1           2             2    2     1       0.2718980085E-02       2    2    1         0.1420199372E+00      0.2734814448E+00
          0                 2           2             2    2     1      -0.2644829109E-03       2    2    1        -0.1420201317E-01      0.2728806241E-01
          0                 3           1             2    2     1       0.1801030323E-04       2    2    1         0.9941411768E-03      0.1904250751E-02

    ------------------------------------------------
       NWT REQUIRED            3 OUTER ITERATIONS 
       AND A TOTAL OF          5 INNER ITERATIONS.
    ------------------------------------------------

 NO OUTPUT CONTROL FOR STRESS PERIOD    2   TIME STEP   26
 
 SOLVING FOR HEAD 
                                                   Max.-Head-Change                         Max.-Flux-Residual
  Residual-Control   Outer-Iter.   Inner-Iter.     Column Row Layer    Maximum-Head-Change  Column Row Layer    Maximum-Flux-Residual          L2-NORM 
          0                 1           2             2    2     1       0.2700869381E-02       2    2    1         0.1410675692E+00      0.2704895739E+00
          0                 2           2             2    2     1      -0.2627212273E-03       2    2    1        -0.1410677599E-01      0.2699573848E-01
          0                 3           1             2    2     1       0.1789033852E-04       2    2    1         0.9874745567E-03      0.1885295107E-02

    ------------------------------------------------
       NWT REQUIRED            3 OUTER ITERATIONS 
       AND A TOTAL OF          5 INNER ITERATIONS.
    ------------------------------------------------

 NO OUTPUT CONTROL FOR STRESS PERIOD    2   TIME STEP   27
 
 SOLVING FOR HEAD 
                                                   Max.-Head-Change                         Max.-Flux-Residual
  Residual-Control   Outer-Iter.   Inner-Iter.     Column Row Layer    Maximum-Head-Change  Column Row Layer    Maximum-Flux-Residual          L2-NORM 
          0                 1           2             2    2     1       0.2683012307E-02       2    2    1         0.1401285478E+00      0.2676806483E+00
          0                 2           2             2    2     1      -0.2609842159E-03       2    2    1        -0.1401287351E-01      0.2672002674E-01
          0                 3           1             2    2     1       0.1777205489E-04       2    2    1         0.9809013885E-03      0.1865495041E-02

    ------------------------------------------------
       NWT REQUIRED            3 OUTER ITERATIONS 
       AND A TOTAL OF          5 INNER ITERATIONS.
    ------------------------------------------------

 NO OUTPUT CONTROL FOR STRESS PERIOD    2   TIME STEP   28
 
 SOLVING FOR HEAD 
                                                   Max.-Head-Change                         Max.-Flux-Residual
  Residual-Control   Outer-Iter.   Inner-Iter.     Column Row Layer    Maximum-Head-Change  Column Row Layer    Maximum-Flux-Residual          L2-NORM 
          0                 1           2             2    2     1       0.2665404407E-02       2    2    1         0.1392026767E+00      0.2650364101E+00
          0                 2           2             2    2     1      -0.2592714421E-03       2    2    1        -0.1392028606E-01      0.2646096208E-01
          0                 3           1             2    2     1       0.1765542112E-04       2    2    1         0.9744202535E-03      0.1848266191E-02

    ------------------------------------------------
       NWT REQUIRED            3 OUTER ITERATIONS 
       AND A TOTAL OF          5 INNER ITERATIONS.
    ------------------------------------------------

 NO OUTPUT CONTROL FOR STRESS PERIOD    2   TIME STEP   29
 
 SOLVING FOR HEAD 
                                                   Max.-Head-Change                         Max.-Flux-Residual
  Residual-Control   Outer-Iter.   Inner-Iter.     Column Row Layer    Maximum-Head-Change  Column Row Layer    Maximum-Flux-Residual          L2-NORM 
          0                 1           2             2    2     1       0.2648042040E-02       2    2    1         0.1382897251E+00      0.2625375411E+00
          0                 2           2             2    2     1      -0.2575825525E-03       2    2    1        -0.1382899057E-01      0.2621546360E-01
          0                 3           1             2    2     1       0.1754041401E-04       2    2    1         0.9680295867E-03      0.1831743696E-02

    ------------------------------------------------
       NWT REQUIRED            3 OUTER ITERATIONS 
       AND A TOTAL OF          5 INNER ITERATIONS.
    ------------------------------------------------

 NO OUTPUT CONTROL FOR STRESS PERIOD    2   TIME STEP   30



 STREAM LISTING     PERIOD      2   STEP       30

 LAYER ROW COL. STREAM  RCH.  FLOW INTO     FLOW TO   FLOW OUT OF   OVRLND.     DIRECT     STREAM       STREAM     STREAM     STREAM   STREAMBED  STREAMBED
                SEG.NO.  NO.  STRM. RCH.    AQUIFER    STRM. RCH.    RUNOFF     PRECIP       ET          HEAD       DEPTH      WIDTH   CONDCTNC.   GRADIENT

   1    1    1     1     1    1.6500E+01  1.9759E-01   1.6302E+01  0.000E+00  0.000E+00  0.000E+00  1.09409E+03  1.039E+00  1.087E+01  4.893E-02  1.346E+00
   1    2    2     1     2    1.6302E+01  3.0466E-01   1.5998E+01  0.000E+00  0.000E+00  0.000E+00  1.08909E+03  1.034E+00  1.079E+01  7.552E-02  1.345E+00
   1    3    3     1     3    1.5998E+01  2.5853E-01   1.5739E+01  0.000E+00  0.000E+00  0.000E+00  1.08345E+03  1.029E+00  1.070E+01  6.417E-02  1.343E+00
   1    3    4     1     4    1.5739E+01  2.3700E-01   1.5502E+01  0.000E+00  0.000E+00  0.000E+00  1.07843E+03  1.024E+00  1.061E+01  5.889E-02  1.341E+00
   1    4    5     2     1    1.3502E+01  2.9865E-01   1.3204E+01  0.000E+00  0.000E+00  0.000E+00  1.07276E+03  8.289E-01  1.200E+01  7.800E-02  1.276E+00
   1    5    6     2     2    1.3204E+01  2.2914E-01   1.2974E+01  0.000E+00  0.000E+00  0.000E+00  1.06733E+03  8.190E-01  1.200E+01  6.000E-02  1.273E+00
   1    6    6     2     3    1.2974E+01  2.2862E-01   1.2746E+01  0.000E+00  0.000E+00  0.000E+00  1.06260E+03  8.104E-01  1.200E+01  6.000E-02  1.270E+00
   1    7    6     2     4    1.2746E+01  2.2810E-01   1.2518E+01  0.000E+00  0.000E+00  0.000E+00  1.05788E+03  8.017E-01  1.200E+01  6.000E-02  1.267E+00
   1    8    6     2     5    1.2518E+01  2.2758E-01   1.2290E+01  0.000E+00  0.000E+00  0.000E+00  1.05315E+03  7.930E-01  1.200E+01  6.000E-02  1.264E+00
   1    3    5     3     1    2.0000E+00  2.8252E-01   1.7175E+00  0.000E+00  0.000E+00  0.000E+00  1.07555E+03  1.909E+00  9.636E+00  7.227E-02  1.955E+00
   1    3    6     3     2    1.7175E+00  2.4905E-01   1.4684E+00  0.000E+00  0.000E+00  0.000E+00  1.07264E+03  1.727E+00  8.909E+00  6.682E-02  1.864E+00
   1    3    7     3     3    1.4684E+00  1.9718E-01   1.2712E+00  0.000E+00  0.000E+00  0.000E+00  1.06987E+03  1.555E+00  8.218E+00  5.547E-02  1.777E+00
   1    4    8     3     4    1.2712E+00  2.2567E-01   1.0456E+00  0.000E+00  0.000E+00  0.000E+00  1.06682E+03  1.364E+00  7.455E+00  6.709E-02  1.682E+00
   1    5    8     3     5    1.0456E+00  1.5790E-01   8.8768E-01  0.000E+00  0.000E+00  0.000E+00  1.06362E+03  1.164E+00  6.655E+00  4.991E-02  1.582E+00
   1    6    8     3     6    8.8768E-01  5.5980E-02   8.3170E-01  0.000E+00  0.000E+00  0.000E+00  1.06158E+03  1.036E+00  6.145E+00  1.844E-02  1.518E+00
   1    5   10     4     1    1.0000E+01  9.0919E-02   9.9091E+00  0.000E+00  0.000E+00  0.000E+00  1.07836E+03  6.368E-01  1.000E+01  2.500E-02  1.212E+00
   1    5    9     4     2    9.9091E+00  1.8158E-01   9.7275E+00  0.000E+00  0.000E+00  0.000E+00  1.07154E+03  6.315E-01  1.000E+01  5.000E-02  1.211E+00
   1    6    8     4     3    9.7275E+00  1.2689E-01   9.6006E+00  0.000E+00  0.000E+00  0.000E+00  1.06381E+03  6.256E-01  1.000E+01  3.500E-02  1.209E+00
   1    6    8     5     1    1.0432E+01  2.2686E-01   1.0205E+01  0.000E+00  0.000E+00  0.000E+00  1.05868E+03  6.790E-01  1.542E+01  6.166E-02  1.226E+00
   1    7    7     5     2    1.0205E+01  2.7894E-01   9.9265E+00  0.000E+00  0.000E+00  0.000E+00  1.05417E+03  6.732E-01  1.519E+01  7.594E-02  1.224E+00
   1    8    7     5     3    9.9265E+00  1.9221E-01   9.7343E+00  0.000E+00  0.000E+00  0.000E+00  1.04992E+03  6.676E-01  1.497E+01  5.241E-02  1.223E+00
   1    8    6     5     4    9.7343E+00  1.3577E-01   9.5985E+00  0.000E+00  0.000E+00  0.000E+00  1.04691E+03  6.637E-01  1.482E+01  3.706E-02  1.221E+00
   1    9    6     6     1    2.1889E+01  2.4742E-01   2.1641E+01  0.000E+00  0.000E+00  0.000E+00  1.04385E+03  1.124E+00  1.200E+01  6.000E-02  1.375E+00
   1   10    7     6     2    2.1641E+01  2.4696E-01   2.1394E+01  0.000E+00  0.000E+00  0.000E+00  1.03930E+03  1.116E+00  1.200E+01  6.000E-02  1.372E+00
   1   11    7     6     3    2.1394E+01  2.4650E-01   2.1148E+01  0.000E+00  0.000E+00  0.000E+00  1.03474E+03  1.108E+00  1.200E+01  6.000E-02  1.369E+00
   1   12    7     6     4    2.1148E+01  2.4603E-01   2.0902E+01  0.000E+00  0.000E+00  0.000E+00  1.03019E+03  1.101E+00  1.200E+01  6.000E-02  1.367E+00
   1   13    7     6     5    2.0902E+01 -1.7643E-02   2.0919E+01  0.000E+00  0.000E+00  0.000E+00  1.02701E+03  1.097E+00  1.200E+01  2.400E-01 -2.450E-02
   1   14    9     7     1    1.5000E+02  1.3345E+00   1.4867E+02  0.000E+00  0.000E+00  0.000E+00  1.03987E+03  2.288E+00  5.529E+01  5.593E-01  7.953E-01
   1   13    8     7     2    1.4867E+02  1.8340E+00   1.4683E+02  0.000E+00  0.000E+00  0.000E+00  1.03478E+03  2.279E+00  5.526E+01  6.148E-01  9.944E-01
   1   13    7     7     3    1.4683E+02  1.4577E+00   1.4537E+02  0.000E+00  0.000E+00  0.000E+00  1.02969E+03  2.271E+00  5.522E+01  5.585E-01  8.701E-01
   1   13    6     8     1    1.6629E+02  8.7801E-01   1.6542E+02  0.000E+00  0.000E+00  0.000E+00  1.02480E+03  2.925E+00  4.241E+01  4.322E-01  6.772E-01
   1   13    5     8     2    1.6542E+02  1.3043E-01   1.6528E+02  0.000E+00  0.000E+00  0.000E+00  1.01855E+03  2.922E+00  4.236E+01  4.317E-01  1.007E-01
   1   13    4     8     3    1.6528E+02 -2.6018E+00   1.6789E+02  0.000E+00  0.000E+00  0.000E+00  1.01230E+03  2.930E+00  4.248E+01  4.329E+00 -2.003E-01
   1   13    3     8     4    1.6789E+02 -3.7076E+00   1.7159E+02  0.000E+00  0.000E+00  0.000E+00  1.00608E+03  2.951E+00  4.278E+01  4.360E+00 -2.835E-01
   1   13    2     8     5    1.7159E+02 -2.5608E+00   1.7416E+02  0.000E+00  0.000E+00  0.000E+00  9.99846E+02  2.971E+00  4.308E+01  4.390E+00 -1.945E-01
   1   13    1     8     6    1.7416E+02 -1.9439E+00   1.7610E+02  0.000E+00  0.000E+00  0.000E+00  9.94860E+02  2.985E+00  4.329E+01  2.647E+00 -2.448E-01
   1    8    6     9     1    0.0000E+00  0.0000E+00   0.0000E+00  0.000E+00  0.000E+00  0.000E+00  1.07875E+03  0.000E+00  4.000E+00  0.000E+00  1.000E+00
   1    8    5     9     2    0.0000E+00  0.0000E+00   0.0000E+00  0.000E+00  0.000E+00  0.000E+00  1.07825E+03  0.000E+00  4.000E+00  0.000E+00  1.000E+00





UNSATURATED ZONE PACKAGE VOLUMETRIC BUDGET FOR  TIME STEP    30 STRESS PERIOD    2
  ------------------------------------------------------------------------------



     CUMULATIVE VOLUMES      L**3       RATES FOR THIS TIME STEP      L**3/T
     ------------------                 ------------------------

           IN:                                      IN:
           ---                                      ---
        INFILTRATION =     2302148.8727          INFILTRATION =           0.8475

          OUT:                                     OUT:
          ----                                     ----
              UZF ET =     1972485.7128                UZF ET =           0.7500
        UZF RECHARGE =       73224.0000          UZF RECHARGE =       0.0000E+00

            IN - OUT =      256439.1600              IN - OUT =       9.7500E-02

          STORAGE:                                 STORAGE:
          --------                                 --------
      STORAGE CHANGE =      256439.1819        STORAGE CHANGE =       9.7500E-02

 PERCENT DISCREPANCY IS DIFFERENCE BETWEEN IN-OUT MINUS CHANGE IN STORAGE
 DIVIDED BY THE AVERAGE OF IN AND OUT TIMES 100

 PERCENT DISCREPANCY =          -0.00     PERCENT DISCREPANCY =           0.00






1
  VOLUMETRIC BUDGET FOR AGRICULTURAL FIELDS AT  END OF TIME STEP   30, STRESS PERIOD   2
  ------------------------------------------------------------------------------

     CUMULATIVE VOLUMES      L**3       RATES FOR THIS TIME STEP      L**3/T
     ------------------                 ------------------------

           IN:                                      IN:
           ---                                      ---
               AG WELLS  =           0.0000                 AG WELLS  =           0.0000
      DIVERSION SEGMENTS =           0.0000        DIVERSION SEGMENTS =           0.0000
           GW IRRIGATION =           0.0000             GW IRRIGATION =           0.0000
           SW IRRIGATION =           0.0000             SW IRRIGATION =           0.0000
        SYSTEM LOSSES GW =           0.0000          SYSTEM LOSSES GW =           0.0000
        SYSTEM LOSSES SW =           0.0000          SYSTEM LOSSES SW =           0.0000

                TOTAL IN =           0.0000                  TOTAL IN =           0.0000

          OUT:                                     OUT:
          ----                                     ----
               AG WELLS  =           0.0000                 AG WELLS  =           0.0000
      DIVERSION SEGMENTS =           0.0000        DIVERSION SEGMENTS =           0.0000
           GW IRRIGATION =           0.0000             GW IRRIGATION =           0.0000
           SW IRRIGATION =           0.0000             SW IRRIGATION =           0.0000
        SYSTEM LOSSES GW =           0.0000          SYSTEM LOSSES GW =           0.0000
        SYSTEM LOSSES SW =           0.0000          SYSTEM LOSSES SW =           0.0000

               TOTAL OUT =           0.0000                 TOTAL OUT =           0.0000

                IN - OUT =           0.0000                  IN - OUT =           0.0000

     PERCENT DISCREPANCY =           0.00         PERCENT DISCREPANCY =           0.00



1
  VOLUMETRIC BUDGET FOR ENTIRE MODEL AT END OF TIME STEP   30, STRESS PERIOD   2
  ------------------------------------------------------------------------------

     CUMULATIVE VOLUMES      L**3       RATES FOR THIS TIME STEP      L**3/T
     ------------------                 ------------------------

           IN:                                      IN:
           ---                                      ---
             STORAGE     =     1717157.7500               STORAGE     =           0.5919
       CONSTANT HEAD     =           0.0000         CONSTANT HEAD     =           0.0000
     HEAD DEP BOUNDS     =      775921.8750       HEAD DEP BOUNDS     =           0.2857
      STREAM LEAKAGE     =    30472192.0000        STREAM LEAKAGE     =          11.2329
        UZF RECHARGE     =       73223.9531          UZF RECHARGE     =           0.0000
               GW ET     =           0.0000                 GW ET     =           0.0000
     SURFACE LEAKAGE     =           0.0000       SURFACE LEAKAGE     =           0.0000
           AG WELLS      =           0.0000             AG WELLS      =           0.0000

                TOTAL IN =    33038496.0000                  TOTAL IN =          12.1105

          OUT:                                     OUT:
          ----                                     ----
             STORAGE     =     3367968.7500               STORAGE     =           0.9902
       CONSTANT HEAD     =           0.0000         CONSTANT HEAD     =           0.0000
     HEAD DEP BOUNDS     =      782284.1250       HEAD DEP BOUNDS     =           0.2886
      STREAM LEAKAGE     =    28888704.0000        STREAM LEAKAGE     =          10.8318
        UZF RECHARGE     =           0.0000          UZF RECHARGE     =           0.0000
               GW ET     =           0.0000                 GW ET     =           0.0000
     SURFACE LEAKAGE     =           0.0000       SURFACE LEAKAGE     =           0.0000
           AG WELLS      =           0.0000             AG WELLS      =           0.0000

               TOTAL OUT =    33038956.0000                 TOTAL OUT =          12.1106

                IN - OUT =        -460.0000                  IN - OUT =      -1.1063E-04

     PERCENT DISCREPANCY =          -0.00         PERCENT DISCREPANCY =          -0.00






         TIME SUMMARY AT END OF TIME STEP   30 IN STRESS PERIOD    2
                    SECONDS     MINUTES      HOURS       DAYS        YEARS
                    -----------------------------------------------------------
   TIME STEP LENGTH  87667.      1461.1      24.352      1.0147     2.77799E-03
 STRESS PERIOD TIME 2.63000E+06  43833.      730.56      30.440     8.33397E-02
         TOTAL TIME 2.71640E+06  45273.      754.56      31.440     8.60775E-02
1
1
                            STRESS PERIOD NO.    3, LENGTH =   2630000.    
                            -----------------------------------------------

                              NUMBER OF TIME STEPS =    30

                               MULTIPLIER FOR DELT =     1.000

                            INITIAL TIME STEP SIZE =   87666.66    

 REUSING NON-PARAMETER GHB CELLS FROM LAST STRESS PERIOD

      2 GHB CELLS

 REUSING STREAM SEGMENT DATA FROM LAST STRESS PERIOD



            AREAL INFILTRATION RATE
 READING ON UNIT   19 WITH FORMAT: (FREE)              

            1           2           3           4           5           6           7           8           9          10
 ........................................................................................................................
   1   1.0000E-10  2.0000E-10   0.000       0.000       0.000       0.000       0.000       0.000       0.000       0.000    
   2   2.0000E-10  1.0000E-10  2.0000E-10   0.000       0.000      8.0000E-10  8.0000E-10  5.0000E-10   0.000       0.000    
   3    0.000      5.0000E-10  1.0000E-10  1.0000E-10  8.0000E-10  8.0000E-10  5.0000E-10  5.0000E-10   0.000       0.000    
   4   8.0000E-10  5.0000E-10  1.0000E-10  1.0000E-10  1.0000E-10  1.0000E-10  1.0000E-10  1.0000E-10  2.0000E-10   0.000    
   5   8.0000E-10  5.0000E-10  1.0000E-10  1.0000E-10  1.0000E-10  1.0000E-10  1.0000E-10  1.0000E-10  1.0000E-10  1.0000E-10
   6   8.0000E-10  5.0000E-10  5.0000E-10  2.0000E-10  2.0000E-10  1.0000E-10  1.0000E-10  1.0000E-10  1.0000E-10  5.0000E-10
   7   8.0000E-10  5.0000E-10  5.0000E-10  2.0000E-10  2.0000E-10  1.0000E-10  1.0000E-10  2.0000E-10  2.0000E-10   0.000    
   8    0.000      5.0000E-10  5.0000E-10  2.0000E-10  2.0000E-10  1.0000E-10  1.0000E-10  2.0000E-10  5.0000E-10   0.000    
   9    0.000      5.0000E-10  5.0000E-10  2.0000E-10  2.0000E-10  1.0000E-10  1.0000E-10  2.0000E-10  5.0000E-10   0.000    
  10    0.000      5.0000E-10  5.0000E-10  2.0000E-10  2.0000E-10  1.0000E-10  1.0000E-10  2.0000E-10  5.0000E-10  8.0000E-10
  11    0.000      1.0000E-10  1.0000E-10  1.0000E-10  1.0000E-10  1.0000E-10  1.0000E-10  2.0000E-10  5.0000E-10   0.000    
  12   1.0000E-10  1.0000E-10  1.0000E-10  1.0000E-10  1.0000E-10  1.0000E-10  1.0000E-10  1.0000E-10  2.0000E-10   0.000    
  13   1.0000E-10  1.0000E-10  2.0000E-10  2.0000E-10  2.0000E-10  2.0000E-10  2.0000E-10  1.0000E-10  1.0000E-10   0.000    
  14    0.000      2.0000E-10  5.0000E-10  5.0000E-10  5.0000E-10  5.0000E-10  5.0000E-10  2.0000E-10  1.0000E-10   0.000    
  15    0.000       0.000      8.0000E-10  8.0000E-10  8.0000E-10  8.0000E-10   0.000       0.000       0.000       0.000    

                  ET RATE =  5.000000E-10

 USING ET EXTINCTION DEPTH FROM PREVIOUS STRESS PERIOD. CURRENT PERIOD IS:       3

 USING EXTINCTION WATER CONTENT FROM PREVIOUS STRESS PERIOD. CURRENT PERIOD IS:       3

 USING AIR ENTRY PRESSURE FROM PREVIOUS STRESS PERIOD. CURRENT PERIOD IS:       3

 USING ROOT PRESSURE HEAD FROM PREVIOUS STRESS PERIOD. CURRENT PERIOD IS:       3

 USING ROOT ACTIVITY FROM PREVIOUS STRESS PERIOD. CURRENT PERIOD IS:       3

 PROCESSING AG STRESS PERIOD DATA

 READING AG STRESS PERIOD DATA

 READING IRRIGATION SEGMENT

 READING IRRIGATION WELL

 READING SUPPLEMENTAL WELL

 END PROCESSING AG STRESS PERIOD DATA OPTIONS
 
 SOLVING FOR HEAD 
                                                   Max.-Head-Change                         Max.-Flux-Residual
  Residual-Control   Outer-Iter.   Inner-Iter.     Column Row Layer    Maximum-Head-Change  Column Row Layer    Maximum-Flux-Residual          L2-NORM 
          0                 1           2             2    2     1       0.3921640727E-02       2    2    1         0.2048605367E+00      0.4998719366E+00
          0                 2           2             7   13     1      -0.6931948785E-03       7   13    1        -0.3837497749E-01      0.6128776747E-01
          0                 3           1             7   13     1       0.4719176522E-04       7   13    1         0.2685570582E-02      0.4239795562E-02

    ------------------------------------------------
       NWT REQUIRED            3 OUTER ITERATIONS 
       AND A TOTAL OF          5 INNER ITERATIONS.
    ------------------------------------------------

 NO OUTPUT CONTROL FOR STRESS PERIOD    3   TIME STEP    1
 
 SOLVING FOR HEAD 
                                                   Max.-Head-Change                         Max.-Flux-Residual
  Residual-Control   Outer-Iter.   Inner-Iter.     Column Row Layer    Maximum-Head-Change  Column Row Layer    Maximum-Flux-Residual          L2-NORM 
          0                 1           2             2   13     1       0.5737848324E-02       4   13    1         0.3262450960E+00      0.7450786839E+00
          0                 2           2             4   13     1      -0.5480878175E-03       4   13    1        -0.3228390834E-01      0.7315651980E-01
          0                 3           1             4   13     1       0.3677863260E-04       4   13    1         0.2227302336E-02      0.4995162275E-02

    ------------------------------------------------
       NWT REQUIRED            3 OUTER ITERATIONS 
       AND A TOTAL OF          5 INNER ITERATIONS.
    ------------------------------------------------

 NO OUTPUT CONTROL FOR STRESS PERIOD    3   TIME STEP    2
 
 SOLVING FOR HEAD 
                                                   Max.-Head-Change                         Max.-Flux-Residual
  Residual-Control   Outer-Iter.   Inner-Iter.     Column Row Layer    Maximum-Head-Change  Column Row Layer    Maximum-Flux-Residual          L2-NORM 
          0                 1           2             2   13     1       0.5310463294E-02       2   13    1         0.2989811985E+00      0.7084675238E+00
          0                 2           2             4   13     1      -0.4975366923E-03       4   13    1        -0.2928598003E-01      0.6963272701E-01
          0                 3           1             4   13     1       0.3336997042E-04       4   13    1         0.2019443943E-02      0.4761546779E-02

    ------------------------------------------------
       NWT REQUIRED            3 OUTER ITERATIONS 
       AND A TOTAL OF          5 INNER ITERATIONS.
    ------------------------------------------------

 NO OUTPUT CONTROL FOR STRESS PERIOD    3   TIME STEP    3
 
 SOLVING FOR HEAD 
                                                   Max.-Head-Change                         Max.-Flux-Residual
  Residual-Control   Outer-Iter.   Inner-Iter.     Column Row Layer    Maximum-Head-Change  Column Row Layer    Maximum-Flux-Residual          L2-NORM 
          0                 1           2             2   13     1       0.4915335462E-02       2   13    1         0.2767006368E+00      0.6757128720E+00
          0                 2           2             2    2     1      -0.4665859467E-03       4   13    1        -0.2658701655E-01      0.6648371856E-01
          0                 3           1             2    2     1       0.3177276404E-04       4   13    1         0.1833410050E-02      0.4552599550E-02

    ------------------------------------------------
       NWT REQUIRED            3 OUTER ITERATIONS 
       AND A TOTAL OF          5 INNER ITERATIONS.
    ------------------------------------------------

 NO OUTPUT CONTROL FOR STRESS PERIOD    3   TIME STEP    4
 
 SOLVING FOR HEAD 
                                                   Max.-Head-Change                         Max.-Flux-Residual
  Residual-Control   Outer-Iter.   Inner-Iter.     Column Row Layer    Maximum-Head-Change  Column Row Layer    Maximum-Flux-Residual          L2-NORM 
          0                 1           2             2    2     1       0.4764247491E-02       2   13    1         0.2561076174E+00      0.6464225526E+00
          0                 2           2             2    2     1      -0.4634322824E-03       2    2    1        -0.2488671475E-01      0.6366872501E-01
          0                 3           1             2    2     1       0.3155801145E-04       2    2    1         0.1742070209E-02      0.4365937162E-02

    ------------------------------------------------
       NWT REQUIRED            3 OUTER ITERATIONS 
       AND A TOTAL OF          5 INNER ITERATIONS.
    ------------------------------------------------

 NO OUTPUT CONTROL FOR STRESS PERIOD    3   TIME STEP    5
 
 SOLVING FOR HEAD 
                                                   Max.-Head-Change                         Max.-Flux-Residual
  Residual-Control   Outer-Iter.   Inner-Iter.     Column Row Layer    Maximum-Head-Change  Column Row Layer    Maximum-Flux-Residual          L2-NORM 
          0                 1           2             2    2     1       0.4732200352E-02       2    2    1         0.2471810290E+00      0.6202312920E+00
          0                 2           2             2    2     1      -0.4603149523E-03       2    2    1        -0.2471816257E-01      0.6115467715E-01
          0                 3           1             2    2     1       0.3134573327E-04       2    2    1         0.1730271577E-02      0.4199957212E-02

    ------------------------------------------------
       NWT REQUIRED            3 OUTER ITERATIONS 
       AND A TOTAL OF          5 INNER ITERATIONS.
    ------------------------------------------------

 NO OUTPUT CONTROL FOR STRESS PERIOD    3   TIME STEP    6
 
 SOLVING FOR HEAD 
                                                   Max.-Head-Change                         Max.-Flux-Residual
  Residual-Control   Outer-Iter.   Inner-Iter.     Column Row Layer    Maximum-Head-Change  Column Row Layer    Maximum-Flux-Residual          L2-NORM 
          0                 1           2             2    2     1       0.4700606368E-02       2    2    1         0.2455194204E+00      0.5968142160E+00
          0                 2           2             2    2     1      -0.4572417024E-03       2    2    1        -0.2455200061E-01      0.5890799368E-01
          0                 3           1             2    2     1       0.3113645612E-04       2    2    1         0.1718640229E-02      0.4051671167E-02

    ------------------------------------------------
       NWT REQUIRED            3 OUTER ITERATIONS 
       AND A TOTAL OF          5 INNER ITERATIONS.
    ------------------------------------------------

 NO OUTPUT CONTROL FOR STRESS PERIOD    3   TIME STEP    7
 
 SOLVING FOR HEAD 
                                                   Max.-Head-Change                         Max.-Flux-Residual
  Residual-Control   Outer-Iter.   Inner-Iter.     Column Row Layer    Maximum-Head-Change  Column Row Layer    Maximum-Flux-Residual          L2-NORM 
          0                 1           2             2    2     1       0.4669458605E-02       2    2    1         0.2438813074E+00      0.5758725219E+00
          0                 2           2             2    2     1      -0.4542118580E-03       2    2    1        -0.2438818822E-01      0.5689915039E-01
          0                 3           1             2    2     1       0.3093013525E-04       2    2    1         0.1707173378E-02      0.3920168642E-02

    ------------------------------------------------
       NWT REQUIRED            3 OUTER ITERATIONS 
       AND A TOTAL OF          5 INNER ITERATIONS.
    ------------------------------------------------

 NO OUTPUT CONTROL FOR STRESS PERIOD    3   TIME STEP    8
 
 SOLVING FOR HEAD 
                                                   Max.-Head-Change                         Max.-Flux-Residual
  Residual-Control   Outer-Iter.   Inner-Iter.     Column Row Layer    Maximum-Head-Change  Column Row Layer    Maximum-Flux-Residual          L2-NORM 
          0                 1           2             2    2     1       0.4638749856E-02       2    2    1         0.2422663304E+00      0.5571329727E+00
          0                 2           2             2    2     1      -0.4512247179E-03       2    2    1        -0.2422668944E-01      0.5510234032E-01
          0                 3           1             2    2     1       0.3072672238E-04       2    2    1         0.1695868471E-02      0.3800779545E-02

    ------------------------------------------------
       NWT REQUIRED            3 OUTER ITERATIONS 
       AND A TOTAL OF          5 INNER ITERATIONS.
    ------------------------------------------------

 NO OUTPUT CONTROL FOR STRESS PERIOD    3   TIME STEP    9
 
 SOLVING FOR HEAD 
                                                   Max.-Head-Change                         Max.-Flux-Residual
  Residual-Control   Outer-Iter.   Inner-Iter.     Column Row Layer    Maximum-Head-Change  Column Row Layer    Maximum-Flux-Residual          L2-NORM 
          0                 1           2             2    2     1       0.4608473399E-02       2    2    1         0.2406741158E+00      0.5403538691E+00
          0                 2           2             2    2     1      -0.4482796287E-03       2    2    1        -0.2406746696E-01      0.5349350062E-01
          0                 3           1             2    2     1       0.3052617279E-04       2    2    1         0.1684722895E-02      0.3694716576E-02

    ------------------------------------------------
       NWT REQUIRED            3 OUTER ITERATIONS 
       AND A TOTAL OF          5 INNER ITERATIONS.
    ------------------------------------------------

 NO OUTPUT CONTROL FOR STRESS PERIOD    3   TIME STEP   10
 
 SOLVING FOR HEAD 
                                                   Max.-Head-Change                         Max.-Flux-Residual
  Residual-Control   Outer-Iter.   Inner-Iter.     Column Row Layer    Maximum-Head-Change  Column Row Layer    Maximum-Flux-Residual          L2-NORM 
          0                 1           2             2    2     1       0.4578535511E-02       2    2    1         0.2390997796E+00      0.5253116936E+00
          0                 2           2             2    2     1      -0.4453674732E-03       2    2    1        -0.2391003232E-01      0.5205008379E-01
          0                 3           1             2    2     1       0.3032786614E-04       2    2    1         0.1673702482E-02      0.3600745662E-02

    ------------------------------------------------
       NWT REQUIRED            3 OUTER ITERATIONS 
       AND A TOTAL OF          5 INNER ITERATIONS.
    ------------------------------------------------

 NO OUTPUT CONTROL FOR STRESS PERIOD    3   TIME STEP   11
 
 SOLVING FOR HEAD 
                                                   Max.-Head-Change                         Max.-Flux-Residual
  Residual-Control   Outer-Iter.   Inner-Iter.     Column Row Layer    Maximum-Head-Change  Column Row Layer    Maximum-Flux-Residual          L2-NORM 
          0                 1           2             2    2     1       0.4549016790E-02       2    2    1         0.2375475332E+00      0.5118069374E+00
          0                 2           2             2    2     1      -0.4424960918E-03       2    2    1        -0.2375480670E-01      0.5075393659E-01
          0                 3           1             2    2     1       0.3013233568E-04       2    2    1         0.1662836691E-02      0.3513181357E-02

    ------------------------------------------------
       NWT REQUIRED            3 OUTER ITERATIONS 
       AND A TOTAL OF          5 INNER ITERATIONS.
    ------------------------------------------------

 NO OUTPUT CONTROL FOR STRESS PERIOD    3   TIME STEP   12
 
 SOLVING FOR HEAD 
                                                   Max.-Head-Change                         Max.-Flux-Residual
  Residual-Control   Outer-Iter.   Inner-Iter.     Column Row Layer    Maximum-Head-Change  Column Row Layer    Maximum-Flux-Residual          L2-NORM 
          0                 1           2             2    2     1       0.4519910909E-02       2    2    1         0.2360170202E+00      0.4996684567E+00
          0                 2           2             2    2     1      -0.4396648691E-03       2    2    1        -0.2360175446E-01      0.4959089536E-01
          0                 3           1             2    2     1       0.2993953974E-04       2    2    1         0.1652123025E-02      0.3436755389E-02

    ------------------------------------------------
       NWT REQUIRED            3 OUTER ITERATIONS 
       AND A TOTAL OF          5 INNER ITERATIONS.
    ------------------------------------------------

 NO OUTPUT CONTROL FOR STRESS PERIOD    3   TIME STEP   13
 
 SOLVING FOR HEAD 
                                                   Max.-Head-Change                         Max.-Flux-Residual
  Residual-Control   Outer-Iter.   Inner-Iter.     Column Row Layer    Maximum-Head-Change  Column Row Layer    Maximum-Flux-Residual          L2-NORM 
          0                 1           2             2    2     1       0.4491211212E-02       2    2    1         0.2345079124E+00      0.4887377962E+00
          0                 2           2             2    2     1      -0.4368731566E-03       2    2    1        -0.2345084272E-01      0.4853933631E-01
          0                 3           1             2    2     1       0.2974943478E-04       2    2    1         0.1641559221E-02      0.3367082809E-02

    ------------------------------------------------
       NWT REQUIRED            3 OUTER ITERATIONS 
       AND A TOTAL OF          5 INNER ITERATIONS.
    ------------------------------------------------

 NO OUTPUT CONTROL FOR STRESS PERIOD    3   TIME STEP   14
 
 SOLVING FOR HEAD 
                                                   Max.-Head-Change                         Max.-Flux-Residual
  Residual-Control   Outer-Iter.   Inner-Iter.     Column Row Layer    Maximum-Head-Change  Column Row Layer    Maximum-Flux-Residual          L2-NORM 
          0                 1           2             2    2     1       0.4462824820E-02       2    2    1         0.2330153288E+00      0.4788720613E+00
          0                 2           2             2    2     1      -0.4341119208E-03       2    2    1        -0.2330158345E-01      0.4759143368E-01
          0                 3           1             2    2     1       0.2956140520E-04       2    2    1         0.1631111074E-02      0.3304041970E-02

    ------------------------------------------------
       NWT REQUIRED            3 OUTER ITERATIONS 
       AND A TOTAL OF          5 INNER ITERATIONS.
    ------------------------------------------------

 NO OUTPUT CONTROL FOR STRESS PERIOD    3   TIME STEP   15
 
 SOLVING FOR HEAD 
                                                   Max.-Head-Change                         Max.-Flux-Residual
  Residual-Control   Outer-Iter.   Inner-Iter.     Column Row Layer    Maximum-Head-Change  Column Row Layer    Maximum-Flux-Residual          L2-NORM 
          0                 1           2             2    2     1       0.4434832751E-02       2    2    1         0.2315435257E+00      0.4699384686E+00
          0                 2           2             2    2     1      -0.4313890423E-03       2    2    1        -0.2315440224E-01      0.4673193446E-01
          0                 3           1             2    2     1       0.2937598731E-04       2    2    1         0.1620808387E-02      0.3247045045E-02

    ------------------------------------------------
       NWT REQUIRED            3 OUTER ITERATIONS 
       AND A TOTAL OF          5 INNER ITERATIONS.
    ------------------------------------------------

 NO OUTPUT CONTROL FOR STRESS PERIOD    3   TIME STEP   16
 
 SOLVING FOR HEAD 
                                                   Max.-Head-Change                         Max.-Flux-Residual
  Residual-Control   Outer-Iter.   Inner-Iter.     Column Row Layer    Maximum-Head-Change  Column Row Layer    Maximum-Flux-Residual          L2-NORM 
          0                 1           2             2    2     1       0.4407229088E-02       2    2    1         0.2300921678E+00      0.4618380669E+00
          0                 2           2             2    2     1      -0.4287039453E-03       2    2    1        -0.2300926558E-01      0.4595220682E-01
          0                 3           1             2    2     1       0.2919314206E-04       2    2    1         0.1610648823E-02      0.3194967980E-02

    ------------------------------------------------
       NWT REQUIRED            3 OUTER ITERATIONS 
       AND A TOTAL OF          5 INNER ITERATIONS.
    ------------------------------------------------

 NO OUTPUT CONTROL FOR STRESS PERIOD    3   TIME STEP   17
 
 SOLVING FOR HEAD 
                                                   Max.-Head-Change                         Max.-Flux-Residual
  Residual-Control   Outer-Iter.   Inner-Iter.     Column Row Layer    Maximum-Head-Change  Column Row Layer    Maximum-Flux-Residual          L2-NORM 
          0                 1           2             2    2     1       0.4379997062E-02       2    2    1         0.2286604169E+00      0.4544617525E+00
          0                 2           2             2    2     1      -0.4260549990E-03       2    2    1        -0.2286608963E-01      0.4524107121E-01
          0                 3           1             2    2     1       0.2901275916E-04       2    2    1         0.1600626526E-02      0.3147893789E-02

    ------------------------------------------------
       NWT REQUIRED            3 OUTER ITERATIONS 
       AND A TOTAL OF          5 INNER ITERATIONS.
    ------------------------------------------------

 NO OUTPUT CONTROL FOR STRESS PERIOD    3   TIME STEP   18
 
 SOLVING FOR HEAD 
                                                   Max.-Head-Change                         Max.-Flux-Residual
  Residual-Control   Outer-Iter.   Inner-Iter.     Column Row Layer    Maximum-Head-Change  Column Row Layer    Maximum-Flux-Residual          L2-NORM 
          0                 1           2             2    2     1       0.4353151369E-02       2    2    1         0.2272489978E+00      0.4477424130E+00
          0                 2           2             2    2     1      -0.4234436319E-03       2    2    1        -0.2272494686E-01      0.4459267484E-01
          0                 3           1             2    2     1       0.2883493470E-04       2    2    1         0.1590746523E-02      0.3105138536E-02

    ------------------------------------------------
       NWT REQUIRED            3 OUTER ITERATIONS 
       AND A TOTAL OF          5 INNER ITERATIONS.
    ------------------------------------------------

 NO OUTPUT CONTROL FOR STRESS PERIOD    3   TIME STEP   19
 
 SOLVING FOR HEAD 
                                                   Max.-Head-Change                         Max.-Flux-Residual
  Residual-Control   Outer-Iter.   Inner-Iter.     Column Row Layer    Maximum-Head-Change  Column Row Layer    Maximum-Flux-Residual          L2-NORM 
          0                 1           2             2    2     1       0.4326589338E-02       2    2    1         0.2258525414E+00      0.4415879275E+00
          0                 2           2             2    2     1      -0.4208598585E-03       2    2    1        -0.2258530042E-01      0.4399820735E-01
          0                 3           1             2    2     1       0.2865898918E-04       2    2    1         0.1580971273E-02      0.3065258862E-02

    ------------------------------------------------
       NWT REQUIRED            3 OUTER ITERATIONS 
       AND A TOTAL OF          5 INNER ITERATIONS.
    ------------------------------------------------

 NO OUTPUT CONTROL FOR STRESS PERIOD    3   TIME STEP   20
 
 SOLVING FOR HEAD 
                                                   Max.-Head-Change                         Max.-Flux-Residual
  Residual-Control   Outer-Iter.   Inner-Iter.     Column Row Layer    Maximum-Head-Change  Column Row Layer    Maximum-Flux-Residual          L2-NORM 
          0                 1           2             2    2     1       0.4300478965E-02       2    2    1         0.2244798663E+00      0.4359393856E+00
          0                 2           2             2    2     1      -0.4183200194E-03       2    2    1        -0.2244803214E-01      0.4345138173E-01
          0                 3           1             2    2     1       0.2848603546E-04       2    2    1         0.1571362492E-02      0.3028301030E-02

    ------------------------------------------------
       NWT REQUIRED            3 OUTER ITERATIONS 
       AND A TOTAL OF          5 INNER ITERATIONS.
    ------------------------------------------------

 NO OUTPUT CONTROL FOR STRESS PERIOD    3   TIME STEP   21
 
 SOLVING FOR HEAD 
                                                   Max.-Head-Change                         Max.-Flux-Residual
  Residual-Control   Outer-Iter.   Inner-Iter.     Column Row Layer    Maximum-Head-Change  Column Row Layer    Maximum-Flux-Residual          L2-NORM 
          0                 1           2             2    2     1       0.4274640541E-02       2    2    1         0.2231215352E+00      0.4307383254E+00
          0                 2           2             2    2     1      -0.4158066334E-03       2    2    1        -0.2231219824E-01      0.4294771498E-01
          0                 3           1             2    2     1       0.2831488352E-04       2    2    1         0.1561854118E-02      0.2994621151E-02

    ------------------------------------------------
       NWT REQUIRED            3 OUTER ITERATIONS 
       AND A TOTAL OF          5 INNER ITERATIONS.
    ------------------------------------------------

 NO OUTPUT CONTROL FOR STRESS PERIOD    3   TIME STEP   22
 
 SOLVING FOR HEAD 
                                                   Max.-Head-Change                         Max.-Flux-Residual
  Residual-Control   Outer-Iter.   Inner-Iter.     Column Row Layer    Maximum-Head-Change  Column Row Layer    Maximum-Flux-Residual          L2-NORM 
          0                 1           2             2    2     1       0.4249069433E-02       2    2    1         0.2217773042E+00      0.4259341993E+00
          0                 2           2             2    2     1      -0.4133192505E-03       2    2    1        -0.2217777439E-01      0.4248109880E-01
          0                 3           1             2    2     1       0.2814550214E-04       2    2    1         0.1552444457E-02      0.2963466062E-02

    ------------------------------------------------
       NWT REQUIRED            3 OUTER ITERATIONS 
       AND A TOTAL OF          5 INNER ITERATIONS.
    ------------------------------------------------

 NO OUTPUT CONTROL FOR STRESS PERIOD    3   TIME STEP   23
 
 SOLVING FOR HEAD 
                                                   Max.-Head-Change                         Max.-Flux-Residual
  Residual-Control   Outer-Iter.   Inner-Iter.     Column Row Layer    Maximum-Head-Change  Column Row Layer    Maximum-Flux-Residual          L2-NORM 
          0                 1           2             2    2     1       0.4223934285E-02       2    2    1         0.2204560075E+00      0.4214811018E+00
          0                 2           2             2    2     1      -0.4108742747E-03       2    2    1        -0.2204564396E-01      0.4204810077E-01
          0                 3           1             2    2     1       0.2797900841E-04       2    2    1         0.1543195329E-02      0.2934244818E-02

    ------------------------------------------------
       NWT REQUIRED            3 OUTER ITERATIONS 
       AND A TOTAL OF          5 INNER ITERATIONS.
    ------------------------------------------------

 NO OUTPUT CONTROL FOR STRESS PERIOD    3   TIME STEP   24
 
 SOLVING FOR HEAD 
                                                   Max.-Head-Change                         Max.-Flux-Residual
  Residual-Control   Outer-Iter.   Inner-Iter.     Column Row Layer    Maximum-Head-Change  Column Row Layer    Maximum-Flux-Residual          L2-NORM 
          0                 1           2             2    2     1       0.4199142071E-02       2    2    1         0.2191527778E+00      0.4173408621E+00
          0                 2           2             2    2     1      -0.4084626574E-03       2    2    1        -0.2191532027E-01      0.4164516098E-01
          0                 3           1             2    2     1       0.2781478627E-04       2    2    1         0.1534072676E-02      0.2906891072E-02

    ------------------------------------------------
       NWT REQUIRED            3 OUTER ITERATIONS 
       AND A TOTAL OF          5 INNER ITERATIONS.
    ------------------------------------------------

 NO OUTPUT CONTROL FOR STRESS PERIOD    3   TIME STEP   25
 
 SOLVING FOR HEAD 
                                                   Max.-Head-Change                         Max.-Flux-Residual
  Residual-Control   Outer-Iter.   Inner-Iter.     Column Row Layer    Maximum-Head-Change  Column Row Layer    Maximum-Flux-Residual          L2-NORM 
          0                 1           2             2    2     1       0.4174600530E-02       2    2    1         0.2178627913E+00      0.4134797904E+00
          0                 2           2             2    2     1      -0.4060754240E-03       2    2    1        -0.2178632090E-01      0.4126956013E-01
          0                 3           1             2    2     1       0.2765222511E-04       2    2    1         0.1525042735E-02      0.2881935758E-02

    ------------------------------------------------
       NWT REQUIRED            3 OUTER ITERATIONS 
       AND A TOTAL OF          5 INNER ITERATIONS.
    ------------------------------------------------

 NO OUTPUT CONTROL FOR STRESS PERIOD    3   TIME STEP   26
 
 SOLVING FOR HEAD 
                                                   Max.-Head-Change                         Max.-Flux-Residual
  Residual-Control   Outer-Iter.   Inner-Iter.     Column Row Layer    Maximum-Head-Change  Column Row Layer    Maximum-Flux-Residual          L2-NORM 
          0                 1           2             2    2     1       0.4150391834E-02       2    2    1         0.2165903393E+00      0.4098650537E+00
          0                 2           2             2    2     1      -0.4037205679E-03       2    2    1        -0.2165907503E-01      0.4092682611E-01
          0                 3           1             2    2     1       0.2749186784E-04       2    2    1         0.1516135520E-02      0.2858546844E-02

    ------------------------------------------------
       NWT REQUIRED            3 OUTER ITERATIONS 
       AND A TOTAL OF          5 INNER ITERATIONS.
    ------------------------------------------------

 NO OUTPUT CONTROL FOR STRESS PERIOD    3   TIME STEP   27
 
 SOLVING FOR HEAD 
                                                   Max.-Head-Change                         Max.-Flux-Residual
  Residual-Control   Outer-Iter.   Inner-Iter.     Column Row Layer    Maximum-Head-Change  Column Row Layer    Maximum-Flux-Residual          L2-NORM 
          0                 1           2             2    2     1       0.4126511094E-02       2    2    1         0.2153351449E+00      0.4064678185E+00
          0                 2           2             2    2     1      -0.4013976122E-03       2    2    1        -0.2153355489E-01      0.4058387104E-01
          0                 3           1             2    2     1       0.2733368347E-04       2    2    1         0.1507349112E-02      0.2835223243E-02

    ------------------------------------------------
       NWT REQUIRED            3 OUTER ITERATIONS 
       AND A TOTAL OF          5 INNER ITERATIONS.
    ------------------------------------------------

 NO OUTPUT CONTROL FOR STRESS PERIOD    3   TIME STEP   28
 
 SOLVING FOR HEAD 
                                                   Max.-Head-Change                         Max.-Flux-Residual
  Residual-Control   Outer-Iter.   Inner-Iter.     Column Row Layer    Maximum-Head-Change  Column Row Layer    Maximum-Flux-Residual          L2-NORM 
          0                 1           2             2    2     1       0.4102953139E-02       2    2    1         0.2140969548E+00      0.4032579467E+00
          0                 2           2             2    2     1      -0.3991060559E-03       2    2    1        -0.2140973524E-01      0.4026944594E-01
          0                 3           1             2    2     1       0.2717763674E-04       2    2    1         0.1498681733E-02      0.2814509076E-02

    ------------------------------------------------
       NWT REQUIRED            3 OUTER ITERATIONS 
       AND A TOTAL OF          5 INNER ITERATIONS.
    ------------------------------------------------

 NO OUTPUT CONTROL FOR STRESS PERIOD    3   TIME STEP   29
 
 SOLVING FOR HEAD 
                                                   Max.-Head-Change                         Max.-Flux-Residual
  Residual-Control   Outer-Iter.   Inner-Iter.     Column Row Layer    Maximum-Head-Change  Column Row Layer    Maximum-Flux-Residual          L2-NORM 
          0                 1           2             4   13     1       0.9279378985E-02       4   13    1         0.5331634570E+00      0.1129361325E+01
          0                 2           2             4   13     1      -0.8928503052E-03       4   13    1        -0.5274537437E-01      0.1105072739E+00
          0                 3           1             4   13     1       0.5989610090E-04       4   13    1         0.3637934295E-02      0.7507072825E-02

    ------------------------------------------------
       NWT REQUIRED            3 OUTER ITERATIONS 
       AND A TOTAL OF          5 INNER ITERATIONS.
    ------------------------------------------------

 NO OUTPUT CONTROL FOR STRESS PERIOD    3   TIME STEP   30



 STREAM LISTING     PERIOD      3   STEP       30

 LAYER ROW COL. STREAM  RCH.  FLOW INTO     FLOW TO   FLOW OUT OF   OVRLND.     DIRECT     STREAM       STREAM     STREAM     STREAM   STREAMBED  STREAMBED
                SEG.NO.  NO.  STRM. RCH.    AQUIFER    STRM. RCH.    RUNOFF     PRECIP       ET          HEAD       DEPTH      WIDTH   CONDCTNC.   GRADIENT

   1    1    1     1     1    5.4376E+01  3.5202E-01   5.4024E+01  0.000E+00  0.000E+00  0.000E+00  1.09450E+03  1.455E+00  1.756E+01  7.901E-02  1.485E+00
   1    2    2     1     2    5.4024E+01  5.4505E-01   5.3479E+01  0.000E+00  0.000E+00  0.000E+00  1.08951E+03  1.449E+00  1.750E+01  1.225E-01  1.483E+00
   1    3    3     1     3    5.3479E+01  4.6474E-01   5.3014E+01  0.000E+00  0.000E+00  0.000E+00  1.08386E+03  1.443E+00  1.743E+01  1.046E-01  1.481E+00
   1    3    4     1     4    5.3014E+01  4.2788E-01   5.2587E+01  0.000E+00  0.000E+00  0.000E+00  1.07884E+03  1.437E+00  1.738E+01  9.643E-02  1.479E+00
   1    4    5     2     1    5.0587E+01  3.7745E-01   5.0209E+01  0.000E+00  0.000E+00  0.000E+00  1.07377E+03  1.839E+00  1.200E+01  7.800E-02  1.613E+00
   1    5    6     2     2    5.0209E+01  2.8990E-01   4.9919E+01  0.000E+00  0.000E+00  0.000E+00  1.06834E+03  1.832E+00  1.200E+01  6.000E-02  1.611E+00
   1    6    6     2     3    4.9919E+01  2.8952E-01   4.9630E+01  0.000E+00  0.000E+00  0.000E+00  1.06362E+03  1.825E+00  1.200E+01  6.000E-02  1.608E+00
   1    7    6     2     4    4.9630E+01  2.8914E-01   4.9341E+01  0.000E+00  0.000E+00  0.000E+00  1.05889E+03  1.819E+00  1.200E+01  6.000E-02  1.606E+00
   1    8    6     2     5    4.9341E+01  2.8876E-01   4.9052E+01  0.000E+00  0.000E+00  0.000E+00  1.05417E+03  1.813E+00  1.200E+01  6.000E-02  1.604E+00
   1    3    5     3     1    2.0000E+00  2.8252E-01   1.7175E+00  0.000E+00  0.000E+00  0.000E+00  1.07555E+03  1.909E+00  9.636E+00  7.227E-02  1.955E+00
   1    3    6     3     2    1.7175E+00  2.4905E-01   1.4684E+00  0.000E+00  0.000E+00  0.000E+00  1.07264E+03  1.727E+00  8.909E+00  6.682E-02  1.864E+00
   1    3    7     3     3    1.4684E+00  1.9718E-01   1.2712E+00  0.000E+00  0.000E+00  0.000E+00  1.06987E+03  1.555E+00  8.218E+00  5.547E-02  1.777E+00
   1    4    8     3     4    1.2712E+00  2.2567E-01   1.0456E+00  0.000E+00  0.000E+00  0.000E+00  1.06682E+03  1.364E+00  7.455E+00  6.709E-02  1.682E+00
   1    5    8     3     5    1.0456E+00  1.5790E-01   8.8768E-01  0.000E+00  0.000E+00  0.000E+00  1.06362E+03  1.164E+00  6.655E+00  4.991E-02  1.582E+00
   1    6    8     3     6    8.8768E-01  5.5980E-02   8.3170E-01  0.000E+00  0.000E+00  0.000E+00  1.06158E+03  1.036E+00  6.145E+00  1.844E-02  1.518E+00
   1    5   10     4     1    1.0000E+01  9.0919E-02   9.9091E+00  0.000E+00  0.000E+00  0.000E+00  1.07836E+03  6.368E-01  1.000E+01  2.500E-02  1.212E+00
   1    5    9     4     2    9.9091E+00  1.8158E-01   9.7275E+00  0.000E+00  0.000E+00  0.000E+00  1.07154E+03  6.315E-01  1.000E+01  5.000E-02  1.211E+00
   1    6    8     4     3    9.7275E+00  1.2689E-01   9.6006E+00  0.000E+00  0.000E+00  0.000E+00  1.06381E+03  6.256E-01  1.000E+01  3.500E-02  1.209E+00
   1    6    8     5     1    1.0432E+01  2.2686E-01   1.0205E+01  0.000E+00  0.000E+00  0.000E+00  1.05868E+03  6.790E-01  1.542E+01  6.166E-02  1.226E+00
   1    7    7     5     2    1.0205E+01  2.7894E-01   9.9265E+00  0.000E+00  0.000E+00  0.000E+00  1.05417E+03  6.732E-01  1.519E+01  7.594E-02  1.224E+00
   1    8    7     5     3    9.9265E+00  1.9221E-01   9.7343E+00  0.000E+00  0.000E+00  0.000E+00  1.04992E+03  6.676E-01  1.497E+01  5.241E-02  1.223E+00
   1    8    6     5     4    9.7343E+00  1.3577E-01   9.5985E+00  0.000E+00  0.000E+00  0.000E+00  1.04691E+03  6.637E-01  1.482E+01  3.706E-02  1.221E+00
   1    9    6     6     1    5.8650E+01  3.0201E-01   5.8348E+01  0.000E+00  0.000E+00  0.000E+00  1.04476E+03  2.034E+00  1.200E+01  6.000E-02  1.678E+00
   1   10    7     6     2    5.8348E+01  3.0164E-01   5.8047E+01  0.000E+00  0.000E+00  0.000E+00  1.04021E+03  2.027E+00  1.200E+01  6.000E-02  1.676E+00
   1   11    7     6     3    5.8047E+01  3.0126E-01   5.7745E+01  0.000E+00  0.000E+00  0.000E+00  1.03566E+03  2.021E+00  1.200E+01  6.000E-02  1.674E+00
   1   12    7     6     4    5.7745E+01  3.0088E-01   5.7445E+01  0.000E+00  0.000E+00  0.000E+00  1.03111E+03  2.015E+00  1.200E+01  6.000E-02  1.672E+00
   1   13    7     6     5    5.7445E+01  1.9557E-02   5.7425E+01  0.000E+00  0.000E+00  0.000E+00  1.02792E+03  2.011E+00  1.200E+01  2.400E-02  2.716E-01
   1   14    9     7     1    1.5000E+02  1.3350E+00   1.4866E+02  0.000E+00  0.000E+00  0.000E+00  1.03987E+03  2.288E+00  5.529E+01  5.593E-01  7.957E-01
   1   13    8     7     2    1.4866E+02  1.8309E+00   1.4683E+02  0.000E+00  0.000E+00  0.000E+00  1.03478E+03  2.279E+00  5.526E+01  6.148E-01  9.927E-01
   1   13    7     7     3    1.4683E+02  1.4433E+00   1.4539E+02  0.000E+00  0.000E+00  0.000E+00  1.02969E+03  2.271E+00  5.522E+01  5.585E-01  8.615E-01
   1   13    6     8     1    2.0282E+02  1.0334E+00   2.0178E+02  0.000E+00  0.000E+00  0.000E+00  1.02503E+03  3.151E+00  4.569E+01  4.656E-01  7.398E-01
   1   13    5     8     2    2.0178E+02  2.2869E-01   2.0155E+02  0.000E+00  0.000E+00  0.000E+00  1.01877E+03  3.148E+00  4.564E+01  4.651E-01  1.639E-01
   1   13    4     8     3    2.0155E+02 -2.0703E+00   2.0362E+02  0.000E+00  0.000E+00  0.000E+00  1.01253E+03  3.153E+00  4.572E+01  4.659E+00 -1.481E-01
   1   13    3     8     4    2.0362E+02 -3.2634E+00   2.0689E+02  0.000E+00  0.000E+00  0.000E+00  1.00629E+03  3.168E+00  4.594E+01  4.682E+00 -2.324E-01
   1   13    2     8     5    2.0689E+02 -2.0910E+00   2.0898E+02  0.000E+00  0.000E+00  0.000E+00  1.00006E+03  3.184E+00  4.617E+01  4.704E+00 -1.482E-01
   1   13    1     8     6    2.0898E+02 -1.6691E+00   2.1065E+02  0.000E+00  0.000E+00  0.000E+00  9.95070E+02  3.195E+00  4.632E+01  2.832E+00 -1.964E-01
   1    8    6     9     1    0.0000E+00  0.0000E+00   0.0000E+00  0.000E+00  0.000E+00  0.000E+00  1.07875E+03  0.000E+00  4.000E+00  0.000E+00  1.000E+00
   1    8    5     9     2    0.0000E+00  0.0000E+00   0.0000E+00  0.000E+00  0.000E+00  0.000E+00  1.07825E+03  0.000E+00  4.000E+00  0.000E+00  1.000E+00





UNSATURATED ZONE PACKAGE VOLUMETRIC BUDGET FOR  TIME STEP    30 STRESS PERIOD    3
  ------------------------------------------------------------------------------



     CUMULATIVE VOLUMES      L**3       RATES FOR THIS TIME STEP      L**3/T
     ------------------                 ------------------------

           IN:                                      IN:
           ---                                      ---
        INFILTRATION =     4531073.7455          INFILTRATION =           0.8475

          OUT:                                     OUT:
          ----                                     ----
              UZF ET =     3944985.5897                UZF ET =           0.7500
        UZF RECHARGE =       73224.0000          UZF RECHARGE =       0.0000E+00

            IN - OUT =      512864.1558              IN - OUT =       9.7500E-02

          STORAGE:                                 STORAGE:
          --------                                 --------
      STORAGE CHANGE =      512864.1946        STORAGE CHANGE =       9.7500E-02

 PERCENT DISCREPANCY IS DIFFERENCE BETWEEN IN-OUT MINUS CHANGE IN STORAGE
 DIVIDED BY THE AVERAGE OF IN AND OUT TIMES 100

 PERCENT DISCREPANCY =          -0.00     PERCENT DISCREPANCY =           0.00






1
  VOLUMETRIC BUDGET FOR AGRICULTURAL FIELDS AT  END OF TIME STEP   30, STRESS PERIOD   3
  ------------------------------------------------------------------------------

     CUMULATIVE VOLUMES      L**3       RATES FOR THIS TIME STEP      L**3/T
     ------------------                 ------------------------

           IN:                                      IN:
           ---                                      ---
               AG WELLS  =           0.0000                 AG WELLS  =           0.0000
      DIVERSION SEGMENTS =           0.0000        DIVERSION SEGMENTS =           0.0000
           GW IRRIGATION =           0.0000             GW IRRIGATION =           0.0000
           SW IRRIGATION =           0.0000             SW IRRIGATION =           0.0000
        SYSTEM LOSSES GW =           0.0000          SYSTEM LOSSES GW =           0.0000
        SYSTEM LOSSES SW =           0.0000          SYSTEM LOSSES SW =           0.0000

                TOTAL IN =           0.0000                  TOTAL IN =           0.0000

          OUT:                                     OUT:
          ----                                     ----
               AG WELLS  =           0.0000                 AG WELLS  =           0.0000
      DIVERSION SEGMENTS =           0.0000        DIVERSION SEGMENTS =           0.0000
           GW IRRIGATION =           0.0000             GW IRRIGATION =           0.0000
           SW IRRIGATION =           0.0000             SW IRRIGATION =           0.0000
        SYSTEM LOSSES GW =           0.0000          SYSTEM LOSSES GW =           0.0000
        SYSTEM LOSSES SW =           0.0000          SYSTEM LOSSES SW =           0.0000

               TOTAL OUT =           0.0000                 TOTAL OUT =           0.0000

                IN - OUT =           0.0000                  IN - OUT =           0.0000

     PERCENT DISCREPANCY =           0.00         PERCENT DISCREPANCY =           0.00



1
  VOLUMETRIC BUDGET FOR ENTIRE MODEL AT END OF TIME STEP   30, STRESS PERIOD   3
  ------------------------------------------------------------------------------

     CUMULATIVE VOLUMES      L**3       RATES FOR THIS TIME STEP      L**3/T
     ------------------                 ------------------------

           IN:                                      IN:
           ---                                      ---
             STORAGE     =     3122516.0000               STORAGE     =           0.4872
       CONSTANT HEAD     =           0.0000         CONSTANT HEAD     =           0.0000
     HEAD DEP BOUNDS     =     1527280.1250       HEAD DEP BOUNDS     =           0.2857
      STREAM LEAKAGE     =    61979672.0000        STREAM LEAKAGE     =          12.8226
        UZF RECHARGE     =       73223.9531          UZF RECHARGE     =           0.0000
               GW ET     =           0.0000                 GW ET     =           0.0000
     SURFACE LEAKAGE     =           0.0000       SURFACE LEAKAGE     =           0.0000
           AG WELLS      =           0.0000             AG WELLS      =           0.0000

                TOTAL IN =    66702692.0000                  TOTAL IN =          13.5955

          OUT:                                     OUT:
          ----                                     ----
             STORAGE     =     9107252.0000               STORAGE     =           4.2117
       CONSTANT HEAD     =           0.0000         CONSTANT HEAD     =           0.0000
     HEAD DEP BOUNDS     =     1544993.8750       HEAD DEP BOUNDS     =           0.2910
      STREAM LEAKAGE     =    56052144.0000        STREAM LEAKAGE     =           9.0938
        UZF RECHARGE     =           0.0000          UZF RECHARGE     =           0.0000
               GW ET     =           0.0000                 GW ET     =           0.0000
     SURFACE LEAKAGE     =           0.0000       SURFACE LEAKAGE     =           0.0000
           AG WELLS      =           0.0000             AG WELLS      =           0.0000

               TOTAL OUT =    66704392.0000                 TOTAL OUT =          13.5965

                IN - OUT =       -1700.0000                  IN - OUT =      -1.0576E-03

     PERCENT DISCREPANCY =          -0.00         PERCENT DISCREPANCY =          -0.01






         TIME SUMMARY AT END OF TIME STEP   30 IN STRESS PERIOD    3
                    SECONDS     MINUTES      HOURS       DAYS        YEARS
                    -----------------------------------------------------------
   TIME STEP LENGTH  87667.      1461.1      24.352      1.0147     2.77799E-03
 STRESS PERIOD TIME 2.63000E+06  43833.      730.56      30.440     8.33397E-02
         TOTAL TIME 5.34640E+06  89107.      1485.1      61.880     0.16942    
1
1
                            STRESS PERIOD NO.    4, LENGTH =   2630000.    
                            -----------------------------------------------

                              NUMBER OF TIME STEPS =    30

                               MULTIPLIER FOR DELT =     1.000

                            INITIAL TIME STEP SIZE =   87666.66    

 REUSING NON-PARAMETER GHB CELLS FROM LAST STRESS PERIOD

      2 GHB CELLS

 REUSING STREAM SEGMENT DATA FROM LAST STRESS PERIOD



            AREAL INFILTRATION RATE
 READING ON UNIT   19 WITH FORMAT: (FREE)              

            1           2           3           4           5           6           7           8           9          10
 ........................................................................................................................
   1   1.0000E-10  2.0000E-10   0.000       0.000       0.000       0.000       0.000       0.000       0.000       0.000    
   2   2.0000E-10  1.0000E-10  2.0000E-10   0.000       0.000      8.0000E-10  8.0000E-10  5.0000E-10   0.000       0.000    
   3    0.000      5.0000E-10  1.0000E-10  1.0000E-10  8.0000E-10  8.0000E-10  5.0000E-10  5.0000E-10   0.000       0.000    
   4   8.0000E-10  5.0000E-10  1.0000E-10  1.0000E-10  1.0000E-10  1.0000E-10  1.0000E-10  1.0000E-10  2.0000E-10   0.000    
   5   8.0000E-10  5.0000E-10  1.0000E-10  1.0000E-10  1.0000E-10  1.0000E-10  1.0000E-10  1.0000E-10  1.0000E-10  1.0000E-10
   6   8.0000E-10  5.0000E-10  5.0000E-10  2.0000E-10  2.0000E-10  1.0000E-10  1.0000E-10  1.0000E-10  1.0000E-10  5.0000E-10
   7   8.0000E-10  5.0000E-10  5.0000E-10  2.0000E-10  2.0000E-10  1.0000E-10  1.0000E-10  2.0000E-10  2.0000E-10   0.000    
   8    0.000      5.0000E-10  5.0000E-10  2.0000E-10  2.0000E-10  1.0000E-10  1.0000E-10  2.0000E-10  5.0000E-10   0.000    
   9    0.000      5.0000E-10  5.0000E-10  2.0000E-10  2.0000E-10  1.0000E-10  1.0000E-10  2.0000E-10  5.0000E-10   0.000    
  10    0.000      5.0000E-10  5.0000E-10  2.0000E-10  2.0000E-10  1.0000E-10  1.0000E-10  2.0000E-10  5.0000E-10  8.0000E-10
  11    0.000      1.0000E-10  1.0000E-10  1.0000E-10  1.0000E-10  1.0000E-10  1.0000E-10  2.0000E-10  5.0000E-10   0.000    
  12   1.0000E-10  1.0000E-10  1.0000E-10  1.0000E-10  1.0000E-10  1.0000E-10  1.0000E-10  1.0000E-10  2.0000E-10   0.000    
  13   1.0000E-10  1.0000E-10  2.0000E-10  2.0000E-10  2.0000E-10  2.0000E-10  2.0000E-10  1.0000E-10  1.0000E-10   0.000    
  14    0.000      2.0000E-10  5.0000E-10  5.0000E-10  5.0000E-10  5.0000E-10  5.0000E-10  2.0000E-10  1.0000E-10   0.000    
  15    0.000       0.000      8.0000E-10  8.0000E-10  8.0000E-10  8.0000E-10   0.000       0.000       0.000       0.000    

                  ET RATE =  5.000000E-10

 USING ET EXTINCTION DEPTH FROM PREVIOUS STRESS PERIOD. CURRENT PERIOD IS:       4

 USING EXTINCTION WATER CONTENT FROM PREVIOUS STRESS PERIOD. CURRENT PERIOD IS:       4

 USING AIR ENTRY PRESSURE FROM PREVIOUS STRESS PERIOD. CURRENT PERIOD IS:       4

 USING ROOT PRESSURE HEAD FROM PREVIOUS STRESS PERIOD. CURRENT PERIOD IS:       4

 USING ROOT ACTIVITY FROM PREVIOUS STRESS PERIOD. CURRENT PERIOD IS:       4

 PROCESSING AG STRESS PERIOD DATA

 READING AG STRESS PERIOD DATA

 READING IRRIGATION SEGMENT

 READING IRRIGATION WELL

 READING SUPPLEMENTAL WELL

 END PROCESSING AG STRESS PERIOD DATA OPTIONS
 
 SOLVING FOR HEAD 
                                                   Max.-Head-Change                         Max.-Flux-Residual
  Residual-Control   Outer-Iter.   Inner-Iter.     Column Row Layer    Maximum-Head-Change  Column Row Layer    Maximum-Flux-Residual          L2-NORM 
          0                 1           2             2   13     1       0.9722706591E-02       4   13    1         0.5574255494E+00      0.1192908535E+01
          0                 2           2             4   13     1      -0.9333061353E-03       4   13    1        -0.5513982280E-01      0.1166980764E+00
          0                 3           1             4   13     1       0.6258911565E-04       4   13    1         0.3801787017E-02      0.7929388182E-02

    ------------------------------------------------
       NWT REQUIRED            3 OUTER ITERATIONS 
       AND A TOTAL OF          5 INNER ITERATIONS.
    ------------------------------------------------

 NO OUTPUT CONTROL FOR STRESS PERIOD    4   TIME STEP    1
 
 SOLVING FOR HEAD 
                                                   Max.-Head-Change                         Max.-Flux-Residual
  Residual-Control   Outer-Iter.   Inner-Iter.     Column Row Layer    Maximum-Head-Change  Column Row Layer    Maximum-Flux-Residual          L2-NORM 
          0                 1           2             2   13     1       0.8971061845E-02       2   13    1         0.5067236770E+00      0.1125586528E+01
          0                 2           2             4   13     1      -0.8448244803E-03       4   13    1        -0.4987501123E-01      0.1102710026E+00
          0                 3           1             4   13     1       0.5665902957E-04       4   13    1         0.3438980787E-02      0.7503697694E-02

    ------------------------------------------------
       NWT REQUIRED            3 OUTER ITERATIONS 
       AND A TOTAL OF          5 INNER ITERATIONS.
    ------------------------------------------------

 NO OUTPUT CONTROL FOR STRESS PERIOD    4   TIME STEP    2
 
 SOLVING FOR HEAD 
                                                   Max.-Head-Change                         Max.-Flux-Residual
  Residual-Control   Outer-Iter.   Inner-Iter.     Column Row Layer    Maximum-Head-Change  Column Row Layer    Maximum-Flux-Residual          L2-NORM 
          0                 1           2             2   13     1       0.8278300461E-02       2   13    1         0.4675348665E+00      0.1065423577E+01
          0                 2           2             2   13     1      -0.7684626531E-03       4   13    1        -0.4514450367E-01      0.1044548324E+00
          0                 3           1             4   13     1       0.5130001029E-04       4   13    1         0.3111364638E-02      0.7117577445E-02

    ------------------------------------------------
       NWT REQUIRED            3 OUTER ITERATIONS 
       AND A TOTAL OF          5 INNER ITERATIONS.
    ------------------------------------------------

 NO OUTPUT CONTROL FOR STRESS PERIOD    4   TIME STEP    3
 
 SOLVING FOR HEAD 
                                                   Max.-Head-Change                         Max.-Flux-Residual
  Residual-Control   Outer-Iter.   Inner-Iter.     Column Row Layer    Maximum-Head-Change  Column Row Layer    Maximum-Flux-Residual          L2-NORM 
          0                 1           2             2   13     1       0.7639674698E-02       2   13    1         0.4314096696E+00      0.1011718689E+01
          0                 2           2             2   13     1      -0.7094780376E-03       2   13    1        -0.4118208294E-01      0.9932724014E-01
          0                 3           1             4   13     1       0.4655574285E-04       4   13    1         0.2822035290E-02      0.6780229549E-02

    ------------------------------------------------
       NWT REQUIRED            3 OUTER ITERATIONS 
       AND A TOTAL OF          5 INNER ITERATIONS.
    ------------------------------------------------

 NO OUTPUT CONTROL FOR STRESS PERIOD    4   TIME STEP    4
 
 SOLVING FOR HEAD 
                                                   Max.-Head-Change                         Max.-Flux-Residual
  Residual-Control   Outer-Iter.   Inner-Iter.     Column Row Layer    Maximum-Head-Change  Column Row Layer    Maximum-Flux-Residual          L2-NORM 
          0                 1           2             2   13     1       0.7051134970E-02       2   13    1         0.3981196161E+00      0.9638256189E+00
          0                 2           2             2   13     1      -0.6550642219E-03       2   13    1        -0.3801806407E-01      0.9471600239E-01
          0                 3           1             2    2     1       0.4352505581E-04       4   13    1         0.2555252590E-02      0.6476046340E-02

    ------------------------------------------------
       NWT REQUIRED            3 OUTER ITERATIONS 
       AND A TOTAL OF          5 INNER ITERATIONS.
    ------------------------------------------------

 NO OUTPUT CONTROL FOR STRESS PERIOD    4   TIME STEP    5
 
 SOLVING FOR HEAD 
                                                   Max.-Head-Change                         Max.-Flux-Residual
  Residual-Control   Outer-Iter.   Inner-Iter.     Column Row Layer    Maximum-Head-Change  Column Row Layer    Maximum-Flux-Residual          L2-NORM 
          0                 1           2             2    2     1       0.6530578794E-02       2   13    1         0.3674340446E+00      0.9211195136E+00
          0                 2           2             2    2     1      -0.6352488475E-03       2   13    1        -0.3510025729E-01      0.9062757206E-01
          0                 3           1             2    2     1       0.4325807581E-04       2    2    1         0.2386429274E-02      0.6206163982E-02

    ------------------------------------------------
       NWT REQUIRED            3 OUTER ITERATIONS 
       AND A TOTAL OF          5 INNER ITERATIONS.
    ------------------------------------------------

 NO OUTPUT CONTROL FOR STRESS PERIOD    4   TIME STEP    6
 
 SOLVING FOR HEAD 
                                                   Max.-Head-Change                         Max.-Flux-Residual
  Residual-Control   Outer-Iter.   Inner-Iter.     Column Row Layer    Maximum-Head-Change  Column Row Layer    Maximum-Flux-Residual          L2-NORM 
          0                 1           2             2    2     1       0.6490744694E-02       2   13    1         0.3391565589E+00      0.8830872342E+00
          0                 2           2             2    2     1      -0.6313740483E-03       2    2    1        -0.3388241289E-01      0.8698754178E-01
          0                 3           1             2    2     1       0.4299421683E-04       2    2    1         0.2371768941E-02      0.5966535889E-02

    ------------------------------------------------
       NWT REQUIRED            3 OUTER ITERATIONS 
       AND A TOTAL OF          5 INNER ITERATIONS.
    ------------------------------------------------

 NO OUTPUT CONTROL FOR STRESS PERIOD    4   TIME STEP    7
 
 SOLVING FOR HEAD 
                                                   Max.-Head-Change                         Max.-Flux-Residual
  Residual-Control   Outer-Iter.   Inner-Iter.     Column Row Layer    Maximum-Head-Change  Column Row Layer    Maximum-Flux-Residual          L2-NORM 
          0                 1           2             2    2     1       0.6451547572E-02       2    2    1         0.3367622684E+00      0.8492150641E+00
          0                 2           2             2    2     1      -0.6275612092E-03       2    2    1        -0.3367632998E-01      0.8374820532E-01
          0                 3           1             2    2     1       0.4273457702E-04       2    2    1         0.2357343149E-02      0.5753731505E-02

    ------------------------------------------------
       NWT REQUIRED            3 OUTER ITERATIONS 
       AND A TOTAL OF          5 INNER ITERATIONS.
    ------------------------------------------------

 NO OUTPUT CONTROL FOR STRESS PERIOD    4   TIME STEP    8
 
 SOLVING FOR HEAD 
                                                   Max.-Head-Change                         Max.-Flux-Residual
  Residual-Control   Outer-Iter.   Inner-Iter.     Column Row Layer    Maximum-Head-Change  Column Row Layer    Maximum-Flux-Residual          L2-NORM 
          0                 1           2             2    2     1       0.6412804297E-02       2    2    1         0.3347254048E+00      0.8190625492E+00
          0                 2           2             2    2     1      -0.6237925182E-03       2    2    1        -0.3347264186E-01      0.8086663199E-01
          0                 3           1             2    2     1       0.4247794320E-04       2    2    1         0.2343084980E-02      0.5564618212E-02

    ------------------------------------------------
       NWT REQUIRED            3 OUTER ITERATIONS 
       AND A TOTAL OF          5 INNER ITERATIONS.
    ------------------------------------------------

 NO OUTPUT CONTROL FOR STRESS PERIOD    4   TIME STEP    9
 
 SOLVING FOR HEAD 
                                                   Max.-Head-Change                         Max.-Flux-Residual
  Residual-Control   Outer-Iter.   Inner-Iter.     Column Row Layer    Maximum-Head-Change  Column Row Layer    Maximum-Flux-Residual          L2-NORM 
          0                 1           2             2    2     1       0.6374594176E-02       2    2    1         0.3327166124E+00      0.7921948598E+00
          0                 2           2             2    2     1      -0.6200756891E-03       2    2    1        -0.3327176089E-01      0.7829830130E-01
          0                 3           1             2    2     1       0.4222484078E-04       2    2    1         0.2329023318E-02      0.5395899446E-02

    ------------------------------------------------
       NWT REQUIRED            3 OUTER ITERATIONS 
       AND A TOTAL OF          5 INNER ITERATIONS.
    ------------------------------------------------

 NO OUTPUT CONTROL FOR STRESS PERIOD    4   TIME STEP   10
 
 SOLVING FOR HEAD 
                                                   Max.-Head-Change                         Max.-Flux-Residual
  Residual-Control   Outer-Iter.   Inner-Iter.     Column Row Layer    Maximum-Head-Change  Column Row Layer    Maximum-Flux-Residual          L2-NORM 
          0                 1           2             2    2     1       0.6336821867E-02       2    2    1         0.3307309230E+00      0.7682456956E+00
          0                 2           2             2    2     1      -0.6164014483E-03       2    2    1        -0.3307319026E-01      0.7600930606E-01
          0                 3           1             2    2     1       0.4197463926E-04       2    2    1         0.2315123403E-02      0.5245474927E-02

    ------------------------------------------------
       NWT REQUIRED            3 OUTER ITERATIONS 
       AND A TOTAL OF          5 INNER ITERATIONS.
    ------------------------------------------------

 NO OUTPUT CONTROL FOR STRESS PERIOD    4   TIME STEP   11
 
 SOLVING FOR HEAD 
                                                   Max.-Head-Change                         Max.-Flux-Residual
  Residual-Control   Outer-Iter.   Inner-Iter.     Column Row Layer    Maximum-Head-Change  Column Row Layer    Maximum-Flux-Residual          L2-NORM 
          0                 1           2             2    2     1       0.6299566920E-02       2    2    1         0.3287724739E+00      0.7468807676E+00
          0                 2           2             2    2     1      -0.6127775330E-03       2    2    1        -0.3287734372E-01      0.7396780827E-01
          0                 3           1             2    2     1       0.4172786406E-04       2    2    1         0.2301414147E-02      0.5111291030E-02

    ------------------------------------------------
       NWT REQUIRED            3 OUTER ITERATIONS 
       AND A TOTAL OF          5 INNER ITERATIONS.
    ------------------------------------------------

 NO OUTPUT CONTROL FOR STRESS PERIOD    4   TIME STEP   12
 
 SOLVING FOR HEAD 
                                                   Max.-Head-Change                         Max.-Flux-Residual
  Residual-Control   Outer-Iter.   Inner-Iter.     Column Row Layer    Maximum-Head-Change  Column Row Layer    Maximum-Flux-Residual          L2-NORM 
          0                 1           2             2    2     1       0.6262821188E-02       2    2    1         0.3268408495E+00      0.7278023089E+00
          0                 2           2             2    2     1      -0.6092031506E-03       2    2    1        -0.3268417964E-01      0.7214403746E-01
          0                 3           1             2    2     1       0.4148446241E-04       2    2    1         0.2287892682E-02      0.4991419050E-02

    ------------------------------------------------
       NWT REQUIRED            3 OUTER ITERATIONS 
       AND A TOTAL OF          5 INNER ITERATIONS.
    ------------------------------------------------

 NO OUTPUT CONTROL FOR STRESS PERIOD    4   TIME STEP   13
 
 SOLVING FOR HEAD 
                                                   Max.-Head-Change                         Max.-Flux-Residual
  Residual-Control   Outer-Iter.   Inner-Iter.     Column Row Layer    Maximum-Head-Change  Column Row Layer    Maximum-Flux-Residual          L2-NORM 
          0                 1           2             2    2     1       0.6226576539E-02       2    2    1         0.3249356272E+00      0.7107304552E+00
          0                 2           2             2    2     1      -0.6056775107E-03       2    2    1        -0.3249365586E-01      0.7051180458E-01
          0                 3           1             2    2     1       0.4124437939E-04       2    2    1         0.2274556003E-02      0.4884020470E-02

    ------------------------------------------------
       NWT REQUIRED            3 OUTER ITERATIONS 
       AND A TOTAL OF          5 INNER ITERATIONS.
    ------------------------------------------------

 NO OUTPUT CONTROL FOR STRESS PERIOD    4   TIME STEP   14
 
 SOLVING FOR HEAD 
                                                   Max.-Head-Change                         Max.-Flux-Residual
  Residual-Control   Outer-Iter.   Inner-Iter.     Column Row Layer    Maximum-Head-Change  Column Row Layer    Maximum-Flux-Residual          L2-NORM 
          0                 1           2             2    2     1       0.6190738554E-02       2    2    1         0.3230518444E+00      0.6954327544E+00
          0                 2           2             2    2     1      -0.6021914291E-03       2    2    1        -0.3230527603E-01      0.6904741996E-01
          0                 3           1             2    2     1       0.4100699065E-04       2    2    1         0.2261369448E-02      0.4787166760E-02

    ------------------------------------------------
       NWT REQUIRED            3 OUTER ITERATIONS 
       AND A TOTAL OF          5 INNER ITERATIONS.
    ------------------------------------------------

 NO OUTPUT CONTROL FOR STRESS PERIOD    4   TIME STEP   15
 
 SOLVING FOR HEAD 
                                                   Max.-Head-Change                         Max.-Flux-Residual
  Residual-Control   Outer-Iter.   Inner-Iter.     Column Row Layer    Maximum-Head-Change  Column Row Layer    Maximum-Flux-Residual          L2-NORM 
          0                 1           2             2    2     1       0.6155387396E-02       2    2    1         0.3211936876E+00      0.6816965238E+00
          0                 2           2             2    2     1      -0.5987527019E-03       2    2    1        -0.3211945882E-01      0.6773269871E-01
          0                 3           1             2    2     1       0.4077282588E-04       2    2    1         0.2248362238E-02      0.4701235123E-02

    ------------------------------------------------
       NWT REQUIRED            3 OUTER ITERATIONS 
       AND A TOTAL OF          5 INNER ITERATIONS.
    ------------------------------------------------

 NO OUTPUT CONTROL FOR STRESS PERIOD    4   TIME STEP   16
 
 SOLVING FOR HEAD 
                                                   Max.-Head-Change                         Max.-Flux-Residual
  Residual-Control   Outer-Iter.   Inner-Iter.     Column Row Layer    Maximum-Head-Change  Column Row Layer    Maximum-Flux-Residual          L2-NORM 
          0                 1           2             2    2     1       0.6120514978E-02       2    2    1         0.3193607723E+00      0.6693406811E+00
          0                 2           2             2    2     1      -0.5953605448E-03       2    2    1        -0.3193616583E-01      0.6654869535E-01
          0                 3           1             2    2     1       0.4054183324E-04       2    2    1         0.2235531750E-02      0.4622964601E-02

    ------------------------------------------------
       NWT REQUIRED            3 OUTER ITERATIONS 
       AND A TOTAL OF          5 INNER ITERATIONS.
    ------------------------------------------------

 NO OUTPUT CONTROL FOR STRESS PERIOD    4   TIME STEP   17
 
 SOLVING FOR HEAD 
                                                   Max.-Head-Change                         Max.-Flux-Residual
  Residual-Control   Outer-Iter.   Inner-Iter.     Column Row Layer    Maximum-Head-Change  Column Row Layer    Maximum-Flux-Residual          L2-NORM 
          0                 1           2             2    2     1       0.6086114131E-02       2    2    1         0.3175526791E+00      0.6581834074E+00
          0                 2           2             2    2     1      -0.5920142585E-03       2    2    1        -0.3175535508E-01      0.6547861353E-01
          0                 3           1             2    2     1       0.4031396327E-04       2    2    1         0.2222874988E-02      0.4552374955E-02

    ------------------------------------------------
       NWT REQUIRED            3 OUTER ITERATIONS 
       AND A TOTAL OF          5 INNER ITERATIONS.
    ------------------------------------------------

 NO OUTPUT CONTROL FOR STRESS PERIOD    4   TIME STEP   18
 
 SOLVING FOR HEAD 
                                                   Max.-Head-Change                         Max.-Flux-Residual
  Residual-Control   Outer-Iter.   Inner-Iter.     Column Row Layer    Maximum-Head-Change  Column Row Layer    Maximum-Flux-Residual          L2-NORM 
          0                 1           2             2    2     1       0.6052090883E-02       2    2    1         0.3157644944E+00      0.6480871972E+00
          0                 2           2             2    2     1      -0.5887047028E-03       2    2    1        -0.3157653520E-01      0.6450909565E-01
          0                 3           1             2    2     1       0.4008859493E-04       2    2    1         0.2210357589E-02      0.4488342151E-02

    ------------------------------------------------
       NWT REQUIRED            3 OUTER ITERATIONS 
       AND A TOTAL OF          5 INNER ITERATIONS.
    ------------------------------------------------

 NO OUTPUT CONTROL FOR STRESS PERIOD    4   TIME STEP   19
 
 SOLVING FOR HEAD 
                                                   Max.-Head-Change                         Max.-Flux-Residual
  Residual-Control   Outer-Iter.   Inner-Iter.     Column Row Layer    Maximum-Head-Change  Column Row Layer    Maximum-Flux-Residual          L2-NORM 
          0                 1           2             2    2     1       0.6018525482E-02       2    2    1         0.3140004295E+00      0.6389240942E+00
          0                 2           2             2    2     1      -0.5854396836E-03       2    2    1        -0.3140012732E-01      0.6362714457E-01
          0                 3           1             2    2     1       0.3986625980E-04       2    2    1         0.2198009063E-02      0.4429577986E-02

    ------------------------------------------------
       NWT REQUIRED            3 OUTER ITERATIONS 
       AND A TOTAL OF          5 INNER ITERATIONS.
    ------------------------------------------------

 NO OUTPUT CONTROL FOR STRESS PERIOD    4   TIME STEP   20
 
 SOLVING FOR HEAD 
                                                   Max.-Head-Change                         Max.-Flux-Residual
  Residual-Control   Outer-Iter.   Inner-Iter.     Column Row Layer    Maximum-Head-Change  Column Row Layer    Maximum-Flux-Residual          L2-NORM 
          0                 1           2             2    2     1       0.5985410749E-02       2    2    1         0.3122601035E+00      0.6305800237E+00
          0                 2           2             2    2     1      -0.5822185030E-03       2    2    1        -0.3122609338E-01      0.6282363216E-01
          0                 3           1             2    2     1       0.3964690959E-04       2    2    1         0.2185826703E-02      0.4376402763E-02

    ------------------------------------------------
       NWT REQUIRED            3 OUTER ITERATIONS 
       AND A TOTAL OF          5 INNER ITERATIONS.
    ------------------------------------------------

 NO OUTPUT CONTROL FOR STRESS PERIOD    4   TIME STEP   21
 
 SOLVING FOR HEAD 
                                                   Max.-Head-Change                         Max.-Flux-Residual
  Residual-Control   Outer-Iter.   Inner-Iter.     Column Row Layer    Maximum-Head-Change  Column Row Layer    Maximum-Flux-Residual          L2-NORM 
          0                 1           2             2    2     1       0.5952739973E-02       2    2    1         0.3105431442E+00      0.6229689428E+00
          0                 2           2             2    2     1      -0.5790405076E-03       2    2    1        -0.3105439614E-01      0.6208896390E-01
          0                 3           1             2    2     1       0.3943050005E-04       2    2    1         0.2173807899E-02      0.4326407697E-02

    ------------------------------------------------
       NWT REQUIRED            3 OUTER ITERATIONS 
       AND A TOTAL OF          5 INNER ITERATIONS.
    ------------------------------------------------

 NO OUTPUT CONTROL FOR STRESS PERIOD    4   TIME STEP   22
 
 SOLVING FOR HEAD 
                                                   Max.-Head-Change                         Max.-Flux-Residual
  Residual-Control   Outer-Iter.   Inner-Iter.     Column Row Layer    Maximum-Head-Change  Column Row Layer    Maximum-Flux-Residual          L2-NORM 
          0                 1           2             2    2     1       0.5920419299E-02       2    2    1         0.3088446607E+00      0.6159849811E+00
          0                 2           2             2    2     1      -0.5758965676E-03       2    2    1        -0.3088454650E-01      0.6141536588E-01
          0                 3           1             2    2     1       0.3921640919E-04       2    2    1         0.2161918418E-02      0.4282366592E-02

    ------------------------------------------------
       NWT REQUIRED            3 OUTER ITERATIONS 
       AND A TOTAL OF          5 INNER ITERATIONS.
    ------------------------------------------------

 NO OUTPUT CONTROL FOR STRESS PERIOD    4   TIME STEP   23
 
 SOLVING FOR HEAD 
                                                   Max.-Head-Change                         Max.-Flux-Residual
  Residual-Control   Outer-Iter.   Inner-Iter.     Column Row Layer    Maximum-Head-Change  Column Row Layer    Maximum-Flux-Residual          L2-NORM 
          0                 1           2             2    2     1       0.5888529809E-02       2    2    1         0.3071688723E+00      0.6095689376E+00
          0                 2           2             2    2     1      -0.5727945709E-03       2    2    1        -0.3071696638E-01      0.6079455114E-01
          0                 3           1             2    2     1       0.3900517546E-04       2    2    1         0.2150187841E-02      0.4240600404E-02

    ------------------------------------------------
       NWT REQUIRED            3 OUTER ITERATIONS 
       AND A TOTAL OF          5 INNER ITERATIONS.
    ------------------------------------------------

 NO OUTPUT CONTROL FOR STRESS PERIOD    4   TIME STEP   24
 
 SOLVING FOR HEAD 
                                                   Max.-Head-Change                         Max.-Flux-Residual
  Residual-Control   Outer-Iter.   Inner-Iter.     Column Row Layer    Maximum-Head-Change  Column Row Layer    Maximum-Flux-Residual          L2-NORM 
          0                 1           2             2    2     1       0.5857064406E-02       2    2    1         0.3055154403E+00      0.6036483312E+00
          0                 2           2             2    2     1      -0.5697338265E-03       2    2    1        -0.3055162196E-01      0.6022065514E-01
          0                 3           1             2    2     1       0.3879674985E-04       2    2    1         0.2138613727E-02      0.4202236599E-02

    ------------------------------------------------
       NWT REQUIRED            3 OUTER ITERATIONS 
       AND A TOTAL OF          5 INNER ITERATIONS.
    ------------------------------------------------

 NO OUTPUT CONTROL FOR STRESS PERIOD    4   TIME STEP   25
 
 SOLVING FOR HEAD 
                                                   Max.-Head-Change                         Max.-Flux-Residual
  Residual-Control   Outer-Iter.   Inner-Iter.     Column Row Layer    Maximum-Head-Change  Column Row Layer    Maximum-Flux-Residual          L2-NORM 
          0                 1           2             2    2     1       0.5826016811E-02       2    2    1         0.3038839966E+00      0.5981780172E+00
          0                 2           2             2    2     1      -0.5667137235E-03       2    2    1        -0.3038847637E-01      0.5968992671E-01
          0                 3           1             2    2     1       0.3859109214E-04       2    2    1         0.2127193536E-02      0.4166718241E-02

    ------------------------------------------------
       NWT REQUIRED            3 OUTER ITERATIONS 
       AND A TOTAL OF          5 INNER ITERATIONS.
    ------------------------------------------------

 NO OUTPUT CONTROL FOR STRESS PERIOD    4   TIME STEP   26
 
 SOLVING FOR HEAD 
                                                   Max.-Head-Change                         Max.-Flux-Residual
  Residual-Control   Outer-Iter.   Inner-Iter.     Column Row Layer    Maximum-Head-Change  Column Row Layer    Maximum-Flux-Residual          L2-NORM 
          0                 1           2             2    2     1       0.5795293960E-02       2    2    1         0.3022696725E+00      0.5930866872E+00
          0                 2           2             2    2     1      -0.5637252105E-03       2    2    1        -0.3022704280E-01      0.5919484204E-01
          0                 3           1             2    2     1       0.3838758578E-04       2    2    1         0.2115893185E-02      0.4133396156E-02

    ------------------------------------------------
       NWT REQUIRED            3 OUTER ITERATIONS 
       AND A TOTAL OF          5 INNER ITERATIONS.
    ------------------------------------------------

 NO OUTPUT CONTROL FOR STRESS PERIOD    4   TIME STEP   27
 
 SOLVING FOR HEAD 
                                                   Max.-Head-Change                         Max.-Flux-Residual
  Residual-Control   Outer-Iter.   Inner-Iter.     Column Row Layer    Maximum-Head-Change  Column Row Layer    Maximum-Flux-Residual          L2-NORM 
          0                 1           2             2    2     1       0.5764977044E-02       2    2    1         0.3006767291E+00      0.5883461591E+00
          0                 2           2             2    2     1      -0.5607761839E-03       2    2    1        -0.3006774729E-01      0.5873281583E-01
          0                 3           1             2    2     1       0.3818676875E-04       2    2    1         0.2104742531E-02      0.4101958269E-02

    ------------------------------------------------
       NWT REQUIRED            3 OUTER ITERATIONS 
       AND A TOTAL OF          5 INNER ITERATIONS.
    ------------------------------------------------

 NO OUTPUT CONTROL FOR STRESS PERIOD    4   TIME STEP   28
 
 SOLVING FOR HEAD 
                                                   Max.-Head-Change                         Max.-Flux-Residual
  Residual-Control   Outer-Iter.   Inner-Iter.     Column Row Layer    Maximum-Head-Change  Column Row Layer    Maximum-Flux-Residual          L2-NORM 
          0                 1           2             2    2     1       0.5735060105E-02       2    2    1         0.2991048331E+00      0.5839165056E+00
          0                 2           2             2    2     1      -0.5578660642E-03       2    2    1        -0.2991055658E-01      0.5830111832E-01
          0                 3           1             2    2     1       0.3798859962E-04       2    2    1         0.2093739157E-02      0.4072782094E-02

    ------------------------------------------------
       NWT REQUIRED            3 OUTER ITERATIONS 
       AND A TOTAL OF          5 INNER ITERATIONS.
    ------------------------------------------------

 NO OUTPUT CONTROL FOR STRESS PERIOD    4   TIME STEP   29
 
 SOLVING FOR HEAD 
                                                   Max.-Head-Change                         Max.-Flux-Residual
  Residual-Control   Outer-Iter.   Inner-Iter.     Column Row Layer    Maximum-Head-Change  Column Row Layer    Maximum-Flux-Residual          L2-NORM 
          0                 1           2             2    2     1       0.4577995966E-02       2    2    1         0.2386111534E+00      0.5559196019E+00
          0                 2           2             2    2     1      -0.4453148114E-03       2    2    1        -0.2386115789E-01      0.5518052966E-01
          0                 3           1             2    2     1       0.3032428173E-04       2    2    1         0.1670281384E-02      0.3825101023E-02

    ------------------------------------------------
       NWT REQUIRED            3 OUTER ITERATIONS 
       AND A TOTAL OF          5 INNER ITERATIONS.
    ------------------------------------------------

 NO OUTPUT CONTROL FOR STRESS PERIOD    4   TIME STEP   30



 STREAM LISTING     PERIOD      4   STEP       30

 LAYER ROW COL. STREAM  RCH.  FLOW INTO     FLOW TO   FLOW OUT OF   OVRLND.     DIRECT     STREAM       STREAM     STREAM     STREAM   STREAMBED  STREAMBED
                SEG.NO.  NO.  STRM. RCH.    AQUIFER    STRM. RCH.    RUNOFF     PRECIP       ET          HEAD       DEPTH      WIDTH   CONDCTNC.   GRADIENT

   1    1    1     1     1    4.6685E+01  3.2585E-01   4.6359E+01  0.000E+00  0.000E+00  0.000E+00  1.09443E+03  1.378E+00  1.654E+01  7.443E-02  1.459E+00
   1    2    2     1     2    4.6359E+01  5.0484E-01   4.5855E+01  0.000E+00  0.000E+00  0.000E+00  1.08943E+03  1.375E+00  1.648E+01  1.154E-01  1.458E+00
   1    3    3     1     3    4.5855E+01  4.3074E-01   4.5424E+01  0.000E+00  0.000E+00  0.000E+00  1.08379E+03  1.372E+00  1.642E+01  9.852E-02  1.457E+00
   1    3    4     1     4    4.5424E+01  3.9680E-01   4.5027E+01  0.000E+00  0.000E+00  0.000E+00  1.07878E+03  1.369E+00  1.636E+01  9.082E-02  1.456E+00
   1    4    5     2     1    4.3027E+01  3.6413E-01   4.2663E+01  0.000E+00  0.000E+00  0.000E+00  1.07360E+03  1.668E+00  1.200E+01  7.800E-02  1.556E+00
   1    5    6     2     2    4.2663E+01  2.7965E-01   4.2383E+01  0.000E+00  0.000E+00  0.000E+00  1.06817E+03  1.661E+00  1.200E+01  6.000E-02  1.554E+00
   1    6    6     2     3    4.2383E+01  2.7926E-01   4.2104E+01  0.000E+00  0.000E+00  0.000E+00  1.06345E+03  1.654E+00  1.200E+01  6.000E-02  1.551E+00
   1    7    6     2     4    4.2104E+01  2.7886E-01   4.1825E+01  0.000E+00  0.000E+00  0.000E+00  1.05872E+03  1.648E+00  1.200E+01  6.000E-02  1.549E+00
   1    8    6     2     5    4.1825E+01  2.7847E-01   4.1547E+01  0.000E+00  0.000E+00  0.000E+00  1.05400E+03  1.641E+00  1.200E+01  6.000E-02  1.547E+00
   1    3    5     3     1    2.0000E+00  2.8252E-01   1.7175E+00  0.000E+00  0.000E+00  0.000E+00  1.07555E+03  1.909E+00  9.636E+00  7.227E-02  1.955E+00
   1    3    6     3     2    1.7175E+00  2.4905E-01   1.4684E+00  0.000E+00  0.000E+00  0.000E+00  1.07264E+03  1.727E+00  8.909E+00  6.682E-02  1.864E+00
   1    3    7     3     3    1.4684E+00  1.9718E-01   1.2712E+00  0.000E+00  0.000E+00  0.000E+00  1.06987E+03  1.555E+00  8.218E+00  5.547E-02  1.777E+00
   1    4    8     3     4    1.2712E+00  2.2567E-01   1.0456E+00  0.000E+00  0.000E+00  0.000E+00  1.06682E+03  1.364E+00  7.455E+00  6.709E-02  1.682E+00
   1    5    8     3     5    1.0456E+00  1.5790E-01   8.8768E-01  0.000E+00  0.000E+00  0.000E+00  1.06362E+03  1.164E+00  6.655E+00  4.991E-02  1.582E+00
   1    6    8     3     6    8.8768E-01  5.5980E-02   8.3170E-01  0.000E+00  0.000E+00  0.000E+00  1.06158E+03  1.036E+00  6.145E+00  1.844E-02  1.518E+00
   1    5   10     4     1    1.0000E+01  9.0919E-02   9.9091E+00  0.000E+00  0.000E+00  0.000E+00  1.07836E+03  6.368E-01  1.000E+01  2.500E-02  1.212E+00
   1    5    9     4     2    9.9091E+00  1.8158E-01   9.7275E+00  0.000E+00  0.000E+00  0.000E+00  1.07154E+03  6.315E-01  1.000E+01  5.000E-02  1.211E+00
   1    6    8     4     3    9.7275E+00  1.2689E-01   9.6006E+00  0.000E+00  0.000E+00  0.000E+00  1.06381E+03  6.256E-01  1.000E+01  3.500E-02  1.209E+00
   1    6    8     5     1    1.0432E+01  2.2686E-01   1.0205E+01  0.000E+00  0.000E+00  0.000E+00  1.05868E+03  6.790E-01  1.542E+01  6.166E-02  1.226E+00
   1    7    7     5     2    1.0205E+01  2.7894E-01   9.9265E+00  0.000E+00  0.000E+00  0.000E+00  1.05417E+03  6.732E-01  1.519E+01  7.594E-02  1.224E+00
   1    8    7     5     3    9.9265E+00  1.9221E-01   9.7343E+00  0.000E+00  0.000E+00  0.000E+00  1.04992E+03  6.676E-01  1.497E+01  5.241E-02  1.223E+00
   1    8    6     5     4    9.7343E+00  1.3577E-01   9.5985E+00  0.000E+00  0.000E+00  0.000E+00  1.04691E+03  6.637E-01  1.482E+01  3.706E-02  1.221E+00
   1    9    6     6     1    5.1145E+01  2.9237E-01   5.0853E+01  0.000E+00  0.000E+00  0.000E+00  1.04460E+03  1.873E+00  1.200E+01  6.000E-02  1.624E+00
   1   10    7     6     2    5.0853E+01  2.9199E-01   5.0561E+01  0.000E+00  0.000E+00  0.000E+00  1.04005E+03  1.866E+00  1.200E+01  6.000E-02  1.622E+00
   1   11    7     6     3    5.0561E+01  2.9160E-01   5.0269E+01  0.000E+00  0.000E+00  0.000E+00  1.03550E+03  1.860E+00  1.200E+01  6.000E-02  1.620E+00
   1   12    7     6     4    5.0269E+01  2.9121E-01   4.9978E+01  0.000E+00  0.000E+00  0.000E+00  1.03094E+03  1.854E+00  1.200E+01  6.000E-02  1.618E+00
   1   13    7     6     5    4.9978E+01  1.5046E-02   4.9963E+01  0.000E+00  0.000E+00  0.000E+00  1.02776E+03  1.850E+00  1.200E+01  2.400E-02  2.090E-01
   1   14    9     7     1    1.5000E+02  1.3355E+00   1.4866E+02  0.000E+00  0.000E+00  0.000E+00  1.03987E+03  2.288E+00  5.529E+01  5.593E-01  7.959E-01
   1   13    8     7     2    1.4866E+02  1.8270E+00   1.4684E+02  0.000E+00  0.000E+00  0.000E+00  1.03478E+03  2.279E+00  5.526E+01  6.148E-01  9.906E-01
   1   13    7     7     3    1.4684E+02  1.4284E+00   1.4541E+02  0.000E+00  0.000E+00  0.000E+00  1.02969E+03  2.271E+00  5.522E+01  5.585E-01  8.526E-01
   1   13    6     8     1    1.9537E+02  9.7131E-01   1.9440E+02  0.000E+00  0.000E+00  0.000E+00  1.02498E+03  3.107E+00  4.506E+01  4.591E-01  7.052E-01
   1   13    5     8     2    1.9440E+02  1.7796E-01   1.9422E+02  0.000E+00  0.000E+00  0.000E+00  1.01873E+03  3.104E+00  4.501E+01  4.586E-01  1.293E-01
   1   13    4     8     3    1.9422E+02 -2.6466E+00   1.9687E+02  0.000E+00  0.000E+00  0.000E+00  1.01249E+03  3.111E+00  4.511E+01  4.597E+00 -1.919E-01
   1   13    3     8     4    1.9687E+02 -3.8111E+00   2.0068E+02  0.000E+00  0.000E+00  0.000E+00  1.00626E+03  3.130E+00  4.539E+01  4.626E+00 -2.746E-01
   1   13    2     8     5    2.0068E+02 -2.7018E+00   2.0338E+02  0.000E+00  0.000E+00  0.000E+00  1.00002E+03  3.150E+00  4.567E+01  4.654E+00 -1.935E-01
   1   13    1     8     6    2.0338E+02 -2.0096E+00   2.0539E+02  0.000E+00  0.000E+00  0.000E+00  9.95038E+02  3.163E+00  4.587E+01  2.805E+00 -2.388E-01
   1    8    6     9     1    0.0000E+00  0.0000E+00   0.0000E+00  0.000E+00  0.000E+00  0.000E+00  1.07875E+03  0.000E+00  4.000E+00  0.000E+00  1.000E+00
   1    8    5     9     2    0.0000E+00  0.0000E+00   0.0000E+00  0.000E+00  0.000E+00  0.000E+00  1.07825E+03  0.000E+00  4.000E+00  0.000E+00  1.000E+00





UNSATURATED ZONE PACKAGE VOLUMETRIC BUDGET FOR  TIME STEP    30 STRESS PERIOD    4
  ------------------------------------------------------------------------------



     CUMULATIVE VOLUMES      L**3       RATES FOR THIS TIME STEP      L**3/T
     ------------------                 ------------------------

           IN:                                      IN:
           ---                                      ---
        INFILTRATION =     6759998.6182          INFILTRATION =           0.8475

          OUT:                                     OUT:
          ----                                     ----
              UZF ET =     5917485.4539                UZF ET =           0.7500
        UZF RECHARGE =       73224.0000          UZF RECHARGE =       0.0000E+00

            IN - OUT =      769289.1644              IN - OUT =       9.7500E-02

          STORAGE:                                 STORAGE:
          --------                                 --------
      STORAGE CHANGE =      769289.2225        STORAGE CHANGE =       9.7500E-02

 PERCENT DISCREPANCY IS DIFFERENCE BETWEEN IN-OUT MINUS CHANGE IN STORAGE
 DIVIDED BY THE AVERAGE OF IN AND OUT TIMES 100

 PERCENT DISCREPANCY =           0.00     PERCENT DISCREPANCY =           0.00






1
  VOLUMETRIC BUDGET FOR AGRICULTURAL FIELDS AT  END OF TIME STEP   30, STRESS PERIOD   4
  ------------------------------------------------------------------------------

     CUMULATIVE VOLUMES      L**3       RATES FOR THIS TIME STEP      L**3/T
     ------------------                 ------------------------

           IN:                                      IN:
           ---                                      ---
               AG WELLS  =           0.0000                 AG WELLS  =           0.0000
      DIVERSION SEGMENTS =           0.0000        DIVERSION SEGMENTS =           0.0000
           GW IRRIGATION =           0.0000             GW IRRIGATION =           0.0000
           SW IRRIGATION =           0.0000             SW IRRIGATION =           0.0000
        SYSTEM LOSSES GW =           0.0000          SYSTEM LOSSES GW =           0.0000
        SYSTEM LOSSES SW =           0.0000          SYSTEM LOSSES SW =           0.0000

                TOTAL IN =           0.0000                  TOTAL IN =           0.0000

          OUT:                                     OUT:
          ----                                     ----
               AG WELLS  =           0.0000                 AG WELLS  =           0.0000
      DIVERSION SEGMENTS =           0.0000        DIVERSION SEGMENTS =           0.0000
           GW IRRIGATION =           0.0000             GW IRRIGATION =           0.0000
           SW IRRIGATION =           0.0000             SW IRRIGATION =           0.0000
        SYSTEM LOSSES GW =           0.0000          SYSTEM LOSSES GW =           0.0000
        SYSTEM LOSSES SW =           0.0000          SYSTEM LOSSES SW =           0.0000

               TOTAL OUT =           0.0000                 TOTAL OUT =           0.0000

                IN - OUT =           0.0000                  IN - OUT =           0.0000

     PERCENT DISCREPANCY =           0.00         PERCENT DISCREPANCY =           0.00



1
  VOLUMETRIC BUDGET FOR ENTIRE MODEL AT END OF TIME STEP   30, STRESS PERIOD   4
  ------------------------------------------------------------------------------

     CUMULATIVE VOLUMES      L**3       RATES FOR THIS TIME STEP      L**3/T
     ------------------                 ------------------------

           IN:                                      IN:
           ---                                      ---
             STORAGE     =     4352803.5000               STORAGE     =           0.9339
       CONSTANT HEAD     =           0.0000         CONSTANT HEAD     =           0.0000
     HEAD DEP BOUNDS     =     2278729.0000       HEAD DEP BOUNDS     =           0.2857
      STREAM LEAKAGE     =    95891936.0000        STREAM LEAKAGE     =          12.4623
        UZF RECHARGE     =       73223.9531          UZF RECHARGE     =           0.0000
               GW ET     =           0.0000                 GW ET     =           0.0000
     SURFACE LEAKAGE     =           0.0000       SURFACE LEAKAGE     =           0.0000
           AG WELLS      =           0.0000             AG WELLS      =           0.0000

                TOTAL IN =   102596696.0000                  TOTAL IN =          13.6819

          OUT:                                     OUT:
          ----                                     ----
             STORAGE     =    18028010.0000               STORAGE     =           2.2164
       CONSTANT HEAD     =           0.0000         CONSTANT HEAD     =           0.0000
     HEAD DEP BOUNDS     =     2316606.7500       HEAD DEP BOUNDS     =           0.2947
      STREAM LEAKAGE     =    82252224.0000        STREAM LEAKAGE     =          11.1691
        UZF RECHARGE     =           0.0000          UZF RECHARGE     =           0.0000
               GW ET     =        3763.8860                 GW ET     =       2.1214E-03
     SURFACE LEAKAGE     =           0.0000       SURFACE LEAKAGE     =           0.0000
           AG WELLS      =           0.0000             AG WELLS      =           0.0000

               TOTAL OUT =   102600600.0000                 TOTAL OUT =          13.6823

                IN - OUT =       -3904.0000                  IN - OUT =      -3.6430E-04

     PERCENT DISCREPANCY =          -0.00         PERCENT DISCREPANCY =          -0.00






         TIME SUMMARY AT END OF TIME STEP   30 IN STRESS PERIOD    4
                    SECONDS     MINUTES      HOURS       DAYS        YEARS
                    -----------------------------------------------------------
   TIME STEP LENGTH  87667.      1461.1      24.352      1.0147     2.77799E-03
 STRESS PERIOD TIME 2.63000E+06  43833.      730.56      30.440     8.33397E-02
         TOTAL TIME 7.97639E+06 1.32940E+05  2215.7      92.319     0.25276    
1
1
                            STRESS PERIOD NO.    5, LENGTH =   2630000.    
                            -----------------------------------------------

                              NUMBER OF TIME STEPS =    30

                               MULTIPLIER FOR DELT =     1.000

                            INITIAL TIME STEP SIZE =   87666.66    

 REUSING NON-PARAMETER GHB CELLS FROM LAST STRESS PERIOD

      2 GHB CELLS

 REUSING STREAM SEGMENT DATA FROM LAST STRESS PERIOD



            AREAL INFILTRATION RATE
 READING ON UNIT   19 WITH FORMAT: (FREE)              

            1           2           3           4           5           6           7           8           9          10
 ........................................................................................................................
   1   1.0000E-10  2.0000E-10   0.000       0.000       0.000       0.000       0.000       0.000       0.000       0.000    
   2   2.0000E-10  1.0000E-10  2.0000E-10   0.000       0.000      8.0000E-10  8.0000E-10  5.0000E-10   0.000       0.000    
   3    0.000      5.0000E-10  1.0000E-10  1.0000E-10  8.0000E-10  8.0000E-10  5.0000E-10  5.0000E-10   0.000       0.000    
   4   8.0000E-10  5.0000E-10  1.0000E-10  1.0000E-10  1.0000E-10  1.0000E-10  1.0000E-10  1.0000E-10  2.0000E-10   0.000    
   5   8.0000E-10  5.0000E-10  1.0000E-10  1.0000E-10  1.0000E-10  1.0000E-10  1.0000E-10  1.0000E-10  1.0000E-10  1.0000E-10
   6   8.0000E-10  5.0000E-10  5.0000E-10  2.0000E-10  2.0000E-10  1.0000E-10  1.0000E-10  1.0000E-10  1.0000E-10  5.0000E-10
   7   8.0000E-10  5.0000E-10  5.0000E-10  2.0000E-10  2.0000E-10  1.0000E-10  1.0000E-10  2.0000E-10  2.0000E-10   0.000    
   8    0.000      5.0000E-10  5.0000E-10  2.0000E-10  2.0000E-10  1.0000E-10  1.0000E-10  2.0000E-10  5.0000E-10   0.000    
   9    0.000      5.0000E-10  5.0000E-10  2.0000E-10  2.0000E-10  1.0000E-10  1.0000E-10  2.0000E-10  5.0000E-10   0.000    
  10    0.000      5.0000E-10  5.0000E-10  2.0000E-10  2.0000E-10  1.0000E-10  1.0000E-10  2.0000E-10  5.0000E-10  8.0000E-10
  11    0.000      1.0000E-10  1.0000E-10  1.0000E-10  1.0000E-10  1.0000E-10  1.0000E-10  2.0000E-10  5.0000E-10   0.000    
  12   1.0000E-10  1.0000E-10  1.0000E-10  1.0000E-10  1.0000E-10  1.0000E-10  1.0000E-10  1.0000E-10  2.0000E-10   0.000    
  13   1.0000E-10  1.0000E-10  2.0000E-10  2.0000E-10  2.0000E-10  2.0000E-10  2.0000E-10  1.0000E-10  1.0000E-10   0.000    
  14    0.000      2.0000E-10  5.0000E-10  5.0000E-10  5.0000E-10  5.0000E-10  5.0000E-10  2.0000E-10  1.0000E-10   0.000    
  15    0.000       0.000      8.0000E-10  8.0000E-10  8.0000E-10  8.0000E-10   0.000       0.000       0.000       0.000    

                  ET RATE =  2.500000E-08

 USING ET EXTINCTION DEPTH FROM PREVIOUS STRESS PERIOD. CURRENT PERIOD IS:       5

 USING EXTINCTION WATER CONTENT FROM PREVIOUS STRESS PERIOD. CURRENT PERIOD IS:       5

 USING AIR ENTRY PRESSURE FROM PREVIOUS STRESS PERIOD. CURRENT PERIOD IS:       5

 USING ROOT PRESSURE HEAD FROM PREVIOUS STRESS PERIOD. CURRENT PERIOD IS:       5

 USING ROOT ACTIVITY FROM PREVIOUS STRESS PERIOD. CURRENT PERIOD IS:       5

 PROCESSING AG STRESS PERIOD DATA

 READING AG STRESS PERIOD DATA

 READING IRRIGATION SEGMENT

 READING IRRIGATION WELL

 READING SUPPLEMENTAL WELL

 END PROCESSING AG STRESS PERIOD DATA OPTIONS
 
 SOLVING FOR HEAD 
                                                   Max.-Head-Change                         Max.-Flux-Residual
  Residual-Control   Outer-Iter.   Inner-Iter.     Column Row Layer    Maximum-Head-Change  Column Row Layer    Maximum-Flux-Residual          L2-NORM 
          0                 1           2             4   13     1      -0.1329788688E-01       4   13    1        -0.7786415509E+00      0.1319443334E+01
          0                 2           2             4    7     1      -0.1155339195E-01       5    6    1        -0.6221716410E+00      0.1522124857E+01
          0                 3           2             4    7     1       0.1201668306E-01       5    6    1         0.6635489549E+00      0.1631230617E+01
          0                 4           2             4    7     1      -0.4781807253E-03       4    6    1        -0.2723765279E-01      0.6757445974E-01
          0                 5           1             4   13     1      -0.8475554579E-05       4   13    1        -0.5273013639E-03      0.1144493346E-02

    ------------------------------------------------
       NWT REQUIRED            5 OUTER ITERATIONS 
       AND A TOTAL OF          9 INNER ITERATIONS.
    ------------------------------------------------

 NO OUTPUT CONTROL FOR STRESS PERIOD    5   TIME STEP    1
 
 SOLVING FOR HEAD 
                                                   Max.-Head-Change                         Max.-Flux-Residual
  Residual-Control   Outer-Iter.   Inner-Iter.     Column Row Layer    Maximum-Head-Change  Column Row Layer    Maximum-Flux-Residual          L2-NORM 
          0                 1           2             4   13     1      -0.1151784328E-01       4   13    1        -0.6740911131E+00      0.1178399397E+01
          0                 2           2             4   13     1       0.1111029145E-02       4   13    1         0.6685574122E-01      0.1150221403E+00
          0                 3           1             4   13     1      -0.7509095688E-04       4   13    1        -0.4645739290E-02      0.7835778651E-02

    ------------------------------------------------
       NWT REQUIRED            3 OUTER ITERATIONS 
       AND A TOTAL OF          5 INNER ITERATIONS.
    ------------------------------------------------

 OUTPUT CONTROL FOR STRESS PERIOD    5   TIME STEP    2
    PRINT BUDGET
    SAVE BUDGET
 UBDSV1 SAVING "         STORAGE" ON UNIT 102 AT TIME STEP  2, STRESS PERIOD   5
 UBDSV2 SAVING "   CONSTANT HEAD" ON UNIT 102 AT TIME STEP  2, STRESS PERIOD   5
 UBDSV1 SAVING "FLOW RIGHT FACE " ON UNIT 102 AT TIME STEP  2, STRESS PERIOD   5
 UBDSV1 SAVING "FLOW FRONT FACE " ON UNIT 102 AT TIME STEP  2, STRESS PERIOD   5

  HEAD DEP BOUNDS   PERIOD    5   STEP     2
 BOUNDARY      1   LAYER   1   ROW    13   COL     1   RATE   -0.294233    
 BOUNDARY      2   LAYER   1   ROW    14   COL     9   RATE    0.285737    



 STREAM LISTING     PERIOD      5   STEP        2

 LAYER ROW COL. STREAM  RCH.  FLOW INTO     FLOW TO   FLOW OUT OF   OVRLND.     DIRECT     STREAM       STREAM     STREAM     STREAM   STREAMBED  STREAMBED
                SEG.NO.  NO.  STRM. RCH.    AQUIFER    STRM. RCH.    RUNOFF     PRECIP       ET          HEAD       DEPTH      WIDTH   CONDCTNC.   GRADIENT

   1    1    1     1     1    2.1000E+01  2.2591E-01   2.0774E+01  0.000E+00  0.000E+00  0.000E+00  1.09416E+03  1.115E+00  1.220E+01  5.490E-02  1.372E+00
   1    2    2     1     2    2.0774E+01  3.4916E-01   2.0425E+01  0.000E+00  0.000E+00  0.000E+00  1.08917E+03  1.110E+00  1.214E+01  8.495E-02  1.370E+00
   1    3    3     1     3    2.0425E+01  2.9709E-01   2.0128E+01  0.000E+00  0.000E+00  0.000E+00  1.08352E+03  1.105E+00  1.206E+01  7.238E-02  1.368E+00
   1    3    4     1     4    2.0128E+01  2.7299E-01   1.9855E+01  0.000E+00  0.000E+00  0.000E+00  1.07851E+03  1.100E+00  1.200E+01  6.659E-02  1.367E+00
   1    4    5     2     1    1.7855E+01  3.1056E-01   1.7544E+01  0.000E+00  0.000E+00  0.000E+00  1.07292E+03  9.816E-01  1.200E+01  7.800E-02  1.327E+00
   1    5    6     2     2    1.7544E+01  2.3834E-01   1.7306E+01  0.000E+00  0.000E+00  0.000E+00  1.06748E+03  9.724E-01  1.200E+01  6.000E-02  1.324E+00
   1    6    6     2     3    1.7306E+01  2.3786E-01   1.7068E+01  0.000E+00  0.000E+00  0.000E+00  1.06276E+03  9.644E-01  1.200E+01  6.000E-02  1.321E+00
   1    7    6     2     4    1.7068E+01  2.3738E-01   1.6831E+01  0.000E+00  0.000E+00  0.000E+00  1.05803E+03  9.564E-01  1.200E+01  6.000E-02  1.319E+00
   1    8    6     2     5    1.6831E+01  2.3690E-01   1.6594E+01  0.000E+00  0.000E+00  0.000E+00  1.05331E+03  9.483E-01  1.200E+01  6.000E-02  1.316E+00
   1    3    5     3     1    2.0000E+00  2.8252E-01   1.7175E+00  0.000E+00  0.000E+00  0.000E+00  1.07555E+03  1.909E+00  9.636E+00  7.227E-02  1.955E+00
   1    3    6     3     2    1.7175E+00  2.4905E-01   1.4684E+00  0.000E+00  0.000E+00  0.000E+00  1.07264E+03  1.727E+00  8.909E+00  6.682E-02  1.864E+00
   1    3    7     3     3    1.4684E+00  1.9718E-01   1.2712E+00  0.000E+00  0.000E+00  0.000E+00  1.06987E+03  1.555E+00  8.218E+00  5.547E-02  1.777E+00
   1    4    8     3     4    1.2712E+00  2.2567E-01   1.0456E+00  0.000E+00  0.000E+00  0.000E+00  1.06682E+03  1.364E+00  7.455E+00  6.709E-02  1.682E+00
   1    5    8     3     5    1.0456E+00  1.5790E-01   8.8768E-01  0.000E+00  0.000E+00  0.000E+00  1.06362E+03  1.164E+00  6.655E+00  4.991E-02  1.582E+00
   1    6    8     3     6    8.8768E-01  5.5980E-02   8.3170E-01  0.000E+00  0.000E+00  0.000E+00  1.06158E+03  1.036E+00  6.145E+00  1.844E-02  1.518E+00
   1    5   10     4     1    1.0000E+01  9.0919E-02   9.9091E+00  0.000E+00  0.000E+00  0.000E+00  1.07836E+03  6.368E-01  1.000E+01  2.500E-02  1.212E+00
   1    5    9     4     2    9.9091E+00  1.8158E-01   9.7275E+00  0.000E+00  0.000E+00  0.000E+00  1.07154E+03  6.315E-01  1.000E+01  5.000E-02  1.211E+00
   1    6    8     4     3    9.7275E+00  1.2689E-01   9.6006E+00  0.000E+00  0.000E+00  0.000E+00  1.06381E+03  6.256E-01  1.000E+01  3.500E-02  1.209E+00
   1    6    8     5     1    1.0432E+01  2.2686E-01   1.0205E+01  0.000E+00  0.000E+00  0.000E+00  1.05868E+03  6.790E-01  1.542E+01  6.166E-02  1.226E+00
   1    7    7     5     2    1.0205E+01  2.7894E-01   9.9265E+00  0.000E+00  0.000E+00  0.000E+00  1.05417E+03  6.732E-01  1.519E+01  7.594E-02  1.224E+00
   1    8    7     5     3    9.9265E+00  1.9221E-01   9.7343E+00  0.000E+00  0.000E+00  0.000E+00  1.04992E+03  6.676E-01  1.497E+01  5.241E-02  1.223E+00
   1    8    6     5     4    9.7343E+00  1.3577E-01   9.5985E+00  0.000E+00  0.000E+00  0.000E+00  1.04691E+03  6.637E-01  1.482E+01  3.706E-02  1.221E+00
   1    9    6     6     1    2.6190E+01  2.5512E-01   2.5935E+01  0.000E+00  0.000E+00  0.000E+00  1.04398E+03  1.252E+00  1.200E+01  6.000E-02  1.417E+00
   1   10    7     6     2    2.5935E+01  2.5467E-01   2.5681E+01  0.000E+00  0.000E+00  0.000E+00  1.03943E+03  1.245E+00  1.200E+01  6.000E-02  1.415E+00
   1   11    7     6     3    2.5681E+01  2.5423E-01   2.5426E+01  0.000E+00  0.000E+00  0.000E+00  1.03487E+03  1.237E+00  1.200E+01  6.000E-02  1.412E+00
   1   12    7     6     4    2.5426E+01  2.5379E-01   2.5173E+01  0.000E+00  0.000E+00  0.000E+00  1.03032E+03  1.230E+00  1.200E+01  6.000E-02  1.410E+00
   1   13    7     6     5    2.5173E+01  7.2037E-05   2.5173E+01  0.000E+00  0.000E+00  0.000E+00  1.02714E+03  1.226E+00  1.200E+01  2.400E-02  1.001E-03
   1   14    9     7     1    1.5000E+02  1.3355E+00   1.4866E+02  0.000E+00  0.000E+00  0.000E+00  1.03987E+03  2.288E+00  5.529E+01  5.593E-01  7.959E-01
   1   13    8     7     2    1.4866E+02  1.8267E+00   1.4684E+02  0.000E+00  0.000E+00  0.000E+00  1.03478E+03  2.279E+00  5.526E+01  6.148E-01  9.904E-01
   1   13    7     7     3    1.4684E+02  1.4284E+00   1.4541E+02  0.000E+00  0.000E+00  0.000E+00  1.02969E+03  2.271E+00  5.522E+01  5.585E-01  8.526E-01
   1   13    6     8     1    1.7058E+02  8.5722E-01   1.6972E+02  0.000E+00  0.000E+00  0.000E+00  1.02483E+03  2.953E+00  4.282E+01  4.364E-01  6.548E-01
   1   13    5     8     2    1.6972E+02  1.0279E-01   1.6962E+02  0.000E+00  0.000E+00  0.000E+00  1.01858E+03  2.950E+00  4.278E+01  4.359E-01  7.860E-02
   1   13    4     8     3    1.6962E+02 -3.0714E+00   1.7269E+02  0.000E+00  0.000E+00  0.000E+00  1.01233E+03  2.960E+00  4.292E+01  4.373E+00 -2.341E-01
   1   13    3     8     4    1.7269E+02 -4.1788E+00   1.7687E+02  0.000E+00  0.000E+00  0.000E+00  1.00611E+03  2.983E+00  4.325E+01  4.408E+00 -3.160E-01
   1   13    2     8     5    1.7687E+02 -3.1137E+00   1.7999E+02  0.000E+00  0.000E+00  0.000E+00  9.99881E+02  3.006E+00  4.359E+01  4.442E+00 -2.337E-01
   1   13    1     8     6    1.7999E+02 -2.2643E+00   1.8225E+02  0.000E+00  0.000E+00  0.000E+00  9.94898E+02  3.023E+00  4.384E+01  2.680E+00 -2.816E-01
   1    8    6     9     1    1.7850E-03  0.0000E+00   1.7850E-03  0.000E+00  0.000E+00  0.000E+00  1.07876E+03  1.277E-02  4.000E+00  0.000E+00  1.004E+00
   1    8    5     9     2    1.7850E-03  0.0000E+00   1.7850E-03  0.000E+00  0.000E+00  0.000E+00  1.07826E+03  1.277E-02  4.000E+00  0.000E+00  1.004E+00



 UBDSV3 SAVING "           GW ET" ON UNIT  61 AT TIME STEP  2, STRESS PERIOD   5
 UBDSV3 SAVING "    UZF RECHARGE" ON UNIT  61 AT TIME STEP  2, STRESS PERIOD   5
 UBDSV3 SAVING " SURFACE LEAKAGE" ON UNIT  61 AT TIME STEP  2, STRESS PERIOD   5
 UBDSV3 SAVING "       HORT+DUNN" ON UNIT  61 AT TIME STEP  2, STRESS PERIOD   5
 UBDSV3 SAVING "  STORAGE CHANGE" ON UNIT  61 AT TIME STEP  2, STRESS PERIOD   5


UNSATURATED ZONE PACKAGE VOLUMETRIC BUDGET FOR  TIME STEP     2 STRESS PERIOD    5
  ------------------------------------------------------------------------------



     CUMULATIVE VOLUMES      L**3       RATES FOR THIS TIME STEP      L**3/T
     ------------------                 ------------------------

           IN:                                      IN:
           ---                                      ---
        INFILTRATION =     7561003.1326          INFILTRATION =           0.8493

          OUT:                                     OUT:
          ----                                     ----
              UZF ET =     7403878.2462                UZF ET =           4.5684
        UZF RECHARGE =       73224.0000          UZF RECHARGE =       0.0000E+00

            IN - OUT =       83900.8864              IN - OUT =          -3.7191

          STORAGE:                                 STORAGE:
          --------                                 --------
      STORAGE CHANGE =       83900.2734        STORAGE CHANGE =          -3.7191

 PERCENT DISCREPANCY IS DIFFERENCE BETWEEN IN-OUT MINUS CHANGE IN STORAGE
 DIVIDED BY THE AVERAGE OF IN AND OUT TIMES 100

 PERCENT DISCREPANCY =           0.00     PERCENT DISCREPANCY =           0.00






 

            AG WELLS      PERIOD    5   STEP   2
 AG WELL      1   LAYER   1   ROW     6   COL     4   RATE     0.00000    
 AG WELL      2   LAYER   1   ROW     6   COL     5   RATE     0.00000    
 AG WELL      3   LAYER   1   ROW     7   COL     4   RATE     0.00000    
 AG WELL      4   LAYER   1   ROW     7   COL     5   RATE     0.00000    
 AG WELL      5   LAYER   1   ROW     8   COL     4   RATE     0.00000    
 AG WELL      6   LAYER   1   ROW     8   COL     5   RATE     0.00000    
 
 

   DIVERSION SEGMENTS     PERIOD    5   STEP   2
 SEGMENT      9   RATE    1.785036E-03
 
 

        SW IRRIGATION     PERIOD    5   STEP   2
 SEGMENT      9   ROW     6   COL     4   RATE    2.975119E-04
 SEGMENT      9   ROW     6   COL     5   RATE    2.975119E-04
 SEGMENT      9   ROW     7   COL     4   RATE    2.975119E-04
 SEGMENT      9   ROW     7   COL     5   RATE    2.975119E-04
 SEGMENT      9   ROW     8   COL     4   RATE    2.975119E-04
 SEGMENT      9   ROW     8   COL     5   RATE    2.975119E-04
 
 

        GW IRRIGATION     PERIOD    5   STEP   2
 AG WELL      1   ROW     6   COL     4   RATE     0.00000    
 AG WELL      2   ROW     6   COL     5   RATE     0.00000    
 AG WELL      3   ROW     7   COL     4   RATE     0.00000    
 AG WELL      4   ROW     7   COL     5   RATE     0.00000    
 AG WELL      5   ROW     8   COL     4   RATE     0.00000    
 AG WELL      6   ROW     8   COL     5   RATE     0.00000    
 
1
  VOLUMETRIC BUDGET FOR AGRICULTURAL FIELDS AT  END OF TIME STEP    2, STRESS PERIOD   5
  ------------------------------------------------------------------------------

     CUMULATIVE VOLUMES      L**3       RATES FOR THIS TIME STEP      L**3/T
     ------------------                 ------------------------

           IN:                                      IN:
           ---                                      ---
               AG WELLS  =           0.0000                 AG WELLS  =           0.0000
      DIVERSION SEGMENTS =      652396.5000        DIVERSION SEGMENTS =       1.7850E-03
           GW IRRIGATION =           0.0000             GW IRRIGATION =           0.0000
           SW IRRIGATION =           0.0000             SW IRRIGATION =           0.0000
        SYSTEM LOSSES GW =           0.0000          SYSTEM LOSSES GW =           0.0000
        SYSTEM LOSSES SW =           0.0000          SYSTEM LOSSES SW =           0.0000

                TOTAL IN =      652396.5000                  TOTAL IN =       1.7850E-03

          OUT:                                     OUT:
          ----                                     ----
               AG WELLS  =           0.0000                 AG WELLS  =           0.0000
      DIVERSION SEGMENTS =           0.0000        DIVERSION SEGMENTS =           0.0000
           GW IRRIGATION =           0.0000             GW IRRIGATION =           0.0000
           SW IRRIGATION =      652409.5000             SW IRRIGATION =       1.7851E-03
        SYSTEM LOSSES GW =           0.0000          SYSTEM LOSSES GW =           0.0000
        SYSTEM LOSSES SW =           0.0000          SYSTEM LOSSES SW =           0.0000

               TOTAL OUT =      652409.5000                 TOTAL OUT =       1.7851E-03

                IN - OUT =         -13.0000                  IN - OUT =      -3.5740E-08

     PERCENT DISCREPANCY =          -0.00         PERCENT DISCREPANCY =          -0.00



1
  VOLUMETRIC BUDGET FOR ENTIRE MODEL AT END OF TIME STEP    2, STRESS PERIOD   5
  ------------------------------------------------------------------------------

     CUMULATIVE VOLUMES      L**3       RATES FOR THIS TIME STEP      L**3/T
     ------------------                 ------------------------

           IN:                                      IN:
           ---                                      ---
             STORAGE     =     4894346.0000               STORAGE     =           2.6624
       CONSTANT HEAD     =           0.0000         CONSTANT HEAD     =           0.0000
     HEAD DEP BOUNDS     =     2328828.0000       HEAD DEP BOUNDS     =           0.2857
      STREAM LEAKAGE     =    97876688.0000        STREAM LEAKAGE     =          11.3762
        UZF RECHARGE     =       73223.9531          UZF RECHARGE     =           0.0000
               GW ET     =           0.0000                 GW ET     =           0.0000
     SURFACE LEAKAGE     =           0.0000       SURFACE LEAKAGE     =           0.0000
           AG WELLS      =           0.0000             AG WELLS      =           0.0000

                TOTAL IN =   105173088.0000                  TOTAL IN =          14.3243

          OUT:                                     OUT:
          ----                                     ----
             STORAGE     =    18253780.0000               STORAGE     =           1.2860
       CONSTANT HEAD     =           0.0000         CONSTANT HEAD     =           0.0000
     HEAD DEP BOUNDS     =     2368213.0000       HEAD DEP BOUNDS     =           0.2942
      STREAM LEAKAGE     =    84528728.0000        STREAM LEAKAGE     =          12.6282
        UZF RECHARGE     =           0.0000          UZF RECHARGE     =           0.0000
               GW ET     =       26237.8613                 GW ET     =           0.1155
     SURFACE LEAKAGE     =           0.0000       SURFACE LEAKAGE     =           0.0000
           AG WELLS      =           0.0000             AG WELLS      =           0.0000

               TOTAL OUT =   105176960.0000                 TOTAL OUT =          14.3240

                IN - OUT =       -3872.0000                  IN - OUT =       3.6621E-04

     PERCENT DISCREPANCY =          -0.00         PERCENT DISCREPANCY =           0.00






         TIME SUMMARY AT END OF TIME STEP    2 IN STRESS PERIOD    5
                    SECONDS     MINUTES      HOURS       DAYS        YEARS
                    -----------------------------------------------------------
   TIME STEP LENGTH  87667.      1461.1      24.352      1.0147     2.77799E-03
 STRESS PERIOD TIME 1.75333E+05  2922.2      48.704      2.0293     5.55598E-03
         TOTAL TIME 8.15173E+06 1.35862E+05  2264.4      94.349     0.25831    
1
 
 SOLVING FOR HEAD 
                                                   Max.-Head-Change                         Max.-Flux-Residual
  Residual-Control   Outer-Iter.   Inner-Iter.     Column Row Layer    Maximum-Head-Change  Column Row Layer    Maximum-Flux-Residual          L2-NORM 
          0                 1           2             4   13     1      -0.1023112168E-01       4   13    1        -0.5985408314E+00      0.1075470328E+01
          0                 2           2             4    7     1      -0.1155394852E-01       5    6    1        -0.6220391992E+00      0.1522279848E+01
          0                 3           2             4    7     1       0.1201672643E-01       5    6    1         0.6635395940E+00      0.1631133050E+01
          0                 4           2             4    7     1      -0.4781877050E-03       4    6    1        -0.2726087398E-01      0.6781237131E-01
          0                 5           1             4   13     1      -0.8267236185E-05       4   13    1        -0.5102245068E-03      0.1209786770E-02

    ------------------------------------------------
       NWT REQUIRED            5 OUTER ITERATIONS 
       AND A TOTAL OF          9 INNER ITERATIONS.
    ------------------------------------------------

 OUTPUT CONTROL FOR STRESS PERIOD    5   TIME STEP    3
    PRINT BUDGET
    SAVE BUDGET
 UBDSV1 SAVING "         STORAGE" ON UNIT 102 AT TIME STEP  3, STRESS PERIOD   5
 UBDSV2 SAVING "   CONSTANT HEAD" ON UNIT 102 AT TIME STEP  3, STRESS PERIOD   5
 UBDSV1 SAVING "FLOW RIGHT FACE " ON UNIT 102 AT TIME STEP  3, STRESS PERIOD   5
 UBDSV1 SAVING "FLOW FRONT FACE " ON UNIT 102 AT TIME STEP  3, STRESS PERIOD   5

  HEAD DEP BOUNDS   PERIOD    5   STEP     3
 BOUNDARY      1   LAYER   1   ROW    13   COL     1   RATE   -0.293992    
 BOUNDARY      2   LAYER   1   ROW    14   COL     9   RATE    0.285738    



 STREAM LISTING     PERIOD      5   STEP        3

 LAYER ROW COL. STREAM  RCH.  FLOW INTO     FLOW TO   FLOW OUT OF   OVRLND.     DIRECT     STREAM       STREAM     STREAM     STREAM   STREAMBED  STREAMBED
                SEG.NO.  NO.  STRM. RCH.    AQUIFER    STRM. RCH.    RUNOFF     PRECIP       ET          HEAD       DEPTH      WIDTH   CONDCTNC.   GRADIENT

   1    1    1     1     1    2.1000E+01  2.2591E-01   2.0774E+01  0.000E+00  0.000E+00  0.000E+00  1.09416E+03  1.115E+00  1.220E+01  5.490E-02  1.372E+00
   1    2    2     1     2    2.0774E+01  3.4916E-01   2.0425E+01  0.000E+00  0.000E+00  0.000E+00  1.08917E+03  1.110E+00  1.214E+01  8.495E-02  1.370E+00
   1    3    3     1     3    2.0425E+01  2.9709E-01   2.0128E+01  0.000E+00  0.000E+00  0.000E+00  1.08352E+03  1.105E+00  1.206E+01  7.238E-02  1.368E+00
   1    3    4     1     4    2.0128E+01  2.7299E-01   1.9855E+01  0.000E+00  0.000E+00  0.000E+00  1.07851E+03  1.100E+00  1.200E+01  6.659E-02  1.367E+00
   1    4    5     2     1    1.7855E+01  3.1056E-01   1.7544E+01  0.000E+00  0.000E+00  0.000E+00  1.07292E+03  9.816E-01  1.200E+01  7.800E-02  1.327E+00
   1    5    6     2     2    1.7544E+01  2.3834E-01   1.7306E+01  0.000E+00  0.000E+00  0.000E+00  1.06748E+03  9.724E-01  1.200E+01  6.000E-02  1.324E+00
   1    6    6     2     3    1.7306E+01  2.3786E-01   1.7068E+01  0.000E+00  0.000E+00  0.000E+00  1.06276E+03  9.644E-01  1.200E+01  6.000E-02  1.321E+00
   1    7    6     2     4    1.7068E+01  2.3738E-01   1.6831E+01  0.000E+00  0.000E+00  0.000E+00  1.05803E+03  9.564E-01  1.200E+01  6.000E-02  1.319E+00
   1    8    6     2     5    1.6831E+01  2.3690E-01   1.6594E+01  0.000E+00  0.000E+00  0.000E+00  1.05331E+03  9.483E-01  1.200E+01  6.000E-02  1.316E+00
   1    3    5     3     1    2.0000E+00  2.8252E-01   1.7175E+00  0.000E+00  0.000E+00  0.000E+00  1.07555E+03  1.909E+00  9.636E+00  7.227E-02  1.955E+00
   1    3    6     3     2    1.7175E+00  2.4905E-01   1.4684E+00  0.000E+00  0.000E+00  0.000E+00  1.07264E+03  1.727E+00  8.909E+00  6.682E-02  1.864E+00
   1    3    7     3     3    1.4684E+00  1.9718E-01   1.2712E+00  0.000E+00  0.000E+00  0.000E+00  1.06987E+03  1.555E+00  8.218E+00  5.547E-02  1.777E+00
   1    4    8     3     4    1.2712E+00  2.2567E-01   1.0456E+00  0.000E+00  0.000E+00  0.000E+00  1.06682E+03  1.364E+00  7.455E+00  6.709E-02  1.682E+00
   1    5    8     3     5    1.0456E+00  1.5790E-01   8.8768E-01  0.000E+00  0.000E+00  0.000E+00  1.06362E+03  1.164E+00  6.655E+00  4.991E-02  1.582E+00
   1    6    8     3     6    8.8768E-01  5.5980E-02   8.3170E-01  0.000E+00  0.000E+00  0.000E+00  1.06158E+03  1.036E+00  6.145E+00  1.844E-02  1.518E+00
   1    5   10     4     1    1.0000E+01  9.0919E-02   9.9091E+00  0.000E+00  0.000E+00  0.000E+00  1.07836E+03  6.368E-01  1.000E+01  2.500E-02  1.212E+00
   1    5    9     4     2    9.9091E+00  1.8158E-01   9.7275E+00  0.000E+00  0.000E+00  0.000E+00  1.07154E+03  6.315E-01  1.000E+01  5.000E-02  1.211E+00
   1    6    8     4     3    9.7275E+00  1.2689E-01   9.6006E+00  0.000E+00  0.000E+00  0.000E+00  1.06381E+03  6.256E-01  1.000E+01  3.500E-02  1.209E+00
   1    6    8     5     1    1.0432E+01  2.2686E-01   1.0205E+01  0.000E+00  0.000E+00  0.000E+00  1.05868E+03  6.790E-01  1.542E+01  6.166E-02  1.226E+00
   1    7    7     5     2    1.0205E+01  2.7894E-01   9.9265E+00  0.000E+00  0.000E+00  0.000E+00  1.05417E+03  6.732E-01  1.519E+01  7.594E-02  1.224E+00
   1    8    7     5     3    9.9265E+00  1.9221E-01   9.7343E+00  0.000E+00  0.000E+00  0.000E+00  1.04992E+03  6.676E-01  1.497E+01  5.241E-02  1.223E+00
   1    8    6     5     4    9.7343E+00  1.3577E-01   9.5985E+00  0.000E+00  0.000E+00  0.000E+00  1.04691E+03  6.637E-01  1.482E+01  3.706E-02  1.221E+00
   1    9    6     6     1    1.8752E+01  2.4141E-01   1.8511E+01  0.000E+00  0.000E+00  0.000E+00  1.04375E+03  1.024E+00  1.200E+01  6.000E-02  1.341E+00
   1   10    7     6     2    1.8511E+01  2.4094E-01   1.8270E+01  0.000E+00  0.000E+00  0.000E+00  1.03920E+03  1.016E+00  1.200E+01  6.000E-02  1.339E+00
   1   11    7     6     3    1.8270E+01  2.4046E-01   1.8029E+01  0.000E+00  0.000E+00  0.000E+00  1.03464E+03  1.008E+00  1.200E+01  6.000E-02  1.336E+00
   1   12    7     6     4    1.8029E+01  2.3998E-01   1.7789E+01  0.000E+00  0.000E+00  0.000E+00  1.03009E+03  9.996E-01  1.200E+01  6.000E-02  1.333E+00
   1   13    7     6     5    1.7789E+01 -5.4266E-02   1.7844E+01  0.000E+00  0.000E+00  0.000E+00  1.02691E+03  9.965E-01  1.200E+01  2.400E-01 -7.537E-02
   1   14    9     7     1    1.5000E+02  1.3355E+00   1.4866E+02  0.000E+00  0.000E+00  0.000E+00  1.03987E+03  2.288E+00  5.529E+01  5.593E-01  7.959E-01
   1   13    8     7     2    1.4866E+02  1.8266E+00   1.4684E+02  0.000E+00  0.000E+00  0.000E+00  1.03478E+03  2.279E+00  5.526E+01  6.148E-01  9.904E-01
   1   13    7     7     3    1.4684E+02  1.4287E+00   1.4541E+02  0.000E+00  0.000E+00  0.000E+00  1.02969E+03  2.271E+00  5.522E+01  5.585E-01  8.528E-01
   1   13    6     8     1    1.6325E+02  8.2328E-01   1.6243E+02  0.000E+00  0.000E+00  0.000E+00  1.02478E+03  2.905E+00  4.212E+01  4.292E-01  6.393E-01
   1   13    5     8     2    1.6243E+02  8.0970E-02   1.6235E+02  0.000E+00  0.000E+00  0.000E+00  1.01853E+03  2.902E+00  4.208E+01  4.288E-01  6.294E-02
   1   13    4     8     3    1.6235E+02 -3.1760E+00   1.6552E+02  0.000E+00  0.000E+00  0.000E+00  1.01229E+03  2.912E+00  4.223E+01  4.303E+00 -2.460E-01
   1   13    3     8     4    1.6552E+02 -4.2664E+00   1.6979E+02  0.000E+00  0.000E+00  0.000E+00  1.00606E+03  2.937E+00  4.258E+01  4.340E+00 -3.277E-01
   1   13    2     8     5    1.6979E+02 -3.2137E+00   1.7300E+02  0.000E+00  0.000E+00  0.000E+00  9.99836E+02  2.961E+00  4.294E+01  4.376E+00 -2.448E-01
   1   13    1     8     6    1.7300E+02 -2.3308E+00   1.7534E+02  0.000E+00  0.000E+00  0.000E+00  9.94854E+02  2.979E+00  4.320E+01  2.641E+00 -2.942E-01
   1    8    6     9     1    7.4400E+00  0.0000E+00   7.4400E+00  0.000E+00  0.000E+00  0.000E+00  1.08065E+03  1.898E+00  4.000E+00  0.000E+00  1.633E+00
   1    8    5     9     2    7.4400E+00  0.0000E+00   7.4400E+00  0.000E+00  0.000E+00  0.000E+00  1.08015E+03  1.898E+00  4.000E+00  0.000E+00  1.633E+00



 UBDSV3 SAVING "           GW ET" ON UNIT  61 AT TIME STEP  3, STRESS PERIOD   5
 UBDSV3 SAVING "    UZF RECHARGE" ON UNIT  61 AT TIME STEP  3, STRESS PERIOD   5
 UBDSV3 SAVING " SURFACE LEAKAGE" ON UNIT  61 AT TIME STEP  3, STRESS PERIOD   5
 UBDSV3 SAVING "       HORT+DUNN" ON UNIT  61 AT TIME STEP  3, STRESS PERIOD   5
 UBDSV3 SAVING "  STORAGE CHANGE" ON UNIT  61 AT TIME STEP  3, STRESS PERIOD   5


UNSATURATED ZONE PACKAGE VOLUMETRIC BUDGET FOR  TIME STEP     3 STRESS PERIOD    5
  ------------------------------------------------------------------------------



     CUMULATIVE VOLUMES      L**3       RATES FOR THIS TIME STEP      L**3/T
     ------------------                 ------------------------

           IN:                                      IN:
           ---                                      ---
        INFILTRATION =     8287553.6597          INFILTRATION =           8.2876

          OUT:                                     OUT:
          ----                                     ----
              UZF ET =     7804295.7264                UZF ET =           4.5675
        UZF RECHARGE =       73224.0000          UZF RECHARGE =       0.0000E+00

            IN - OUT =      410033.9333              IN - OUT =           3.7201

          STORAGE:                                 STORAGE:
          --------                                 --------
      STORAGE CHANGE =      410033.3041        STORAGE CHANGE =           3.7201

 PERCENT DISCREPANCY IS DIFFERENCE BETWEEN IN-OUT MINUS CHANGE IN STORAGE
 DIVIDED BY THE AVERAGE OF IN AND OUT TIMES 100

 PERCENT DISCREPANCY =           0.00     PERCENT DISCREPANCY =           0.00






 

            AG WELLS      PERIOD    5   STEP   3
 AG WELL      1   LAYER   1   ROW     6   COL     4   RATE     0.00000    
 AG WELL      2   LAYER   1   ROW     6   COL     5   RATE     0.00000    
 AG WELL      3   LAYER   1   ROW     7   COL     4   RATE     0.00000    
 AG WELL      4   LAYER   1   ROW     7   COL     5   RATE     0.00000    
 AG WELL      5   LAYER   1   ROW     8   COL     4   RATE     0.00000    
 AG WELL      6   LAYER   1   ROW     8   COL     5   RATE     0.00000    
 
 

   DIVERSION SEGMENTS     PERIOD    5   STEP   3
 SEGMENT      9   RATE     7.44000    
 
 

        SW IRRIGATION     PERIOD    5   STEP   3
 SEGMENT      9   ROW     6   COL     4   RATE     1.24002    
 SEGMENT      9   ROW     6   COL     5   RATE     1.24002    
 SEGMENT      9   ROW     7   COL     4   RATE     1.24002    
 SEGMENT      9   ROW     7   COL     5   RATE     1.24002    
 SEGMENT      9   ROW     8   COL     4   RATE     1.24002    
 SEGMENT      9   ROW     8   COL     5   RATE     1.24002    
 
 

        GW IRRIGATION     PERIOD    5   STEP   3
 AG WELL      1   ROW     6   COL     4   RATE     0.00000    
 AG WELL      2   ROW     6   COL     5   RATE     0.00000    
 AG WELL      3   ROW     7   COL     4   RATE     0.00000    
 AG WELL      4   ROW     7   COL     5   RATE     0.00000    
 AG WELL      5   ROW     8   COL     4   RATE     0.00000    
 AG WELL      6   ROW     8   COL     5   RATE     0.00000    
 
1
  VOLUMETRIC BUDGET FOR AGRICULTURAL FIELDS AT  END OF TIME STEP    3, STRESS PERIOD   5
  ------------------------------------------------------------------------------

     CUMULATIVE VOLUMES      L**3       RATES FOR THIS TIME STEP      L**3/T
     ------------------                 ------------------------

           IN:                                      IN:
           ---                                      ---
               AG WELLS  =           0.0000                 AG WELLS  =           0.0000
      DIVERSION SEGMENTS =     1304636.5000        DIVERSION SEGMENTS =           7.4400
           GW IRRIGATION =           0.0000             GW IRRIGATION =           0.0000
           SW IRRIGATION =           0.0000             SW IRRIGATION =           0.0000
        SYSTEM LOSSES GW =           0.0000          SYSTEM LOSSES GW =           0.0000
        SYSTEM LOSSES SW =           0.0000          SYSTEM LOSSES SW =           0.0000

                TOTAL IN =     1304636.5000                  TOTAL IN =           7.4400

          OUT:                                     OUT:
          ----                                     ----
               AG WELLS  =           0.0000                 AG WELLS  =           0.0000
      DIVERSION SEGMENTS =           0.0000        DIVERSION SEGMENTS =           0.0000
           GW IRRIGATION =           0.0000             GW IRRIGATION =           0.0000
           SW IRRIGATION =     1304662.5000             SW IRRIGATION =           7.4401
        SYSTEM LOSSES GW =           0.0000          SYSTEM LOSSES GW =           0.0000
        SYSTEM LOSSES SW =           0.0000          SYSTEM LOSSES SW =           0.0000

               TOTAL OUT =     1304662.5000                 TOTAL OUT =           7.4401

                IN - OUT =         -26.0000                  IN - OUT =      -1.4877E-04

     PERCENT DISCREPANCY =          -0.00         PERCENT DISCREPANCY =          -0.00



1
  VOLUMETRIC BUDGET FOR ENTIRE MODEL AT END OF TIME STEP    3, STRESS PERIOD   5
  ------------------------------------------------------------------------------

     CUMULATIVE VOLUMES      L**3       RATES FOR THIS TIME STEP      L**3/T
     ------------------                 ------------------------

           IN:                                      IN:
           ---                                      ---
             STORAGE     =     5165079.5000               STORAGE     =           3.0882
       CONSTANT HEAD     =           0.0000         CONSTANT HEAD     =           0.0000
     HEAD DEP BOUNDS     =     2353877.7500       HEAD DEP BOUNDS     =           0.2857
      STREAM LEAKAGE     =    98864296.0000        STREAM LEAKAGE     =          11.2655
        UZF RECHARGE     =       73223.9531          UZF RECHARGE     =           0.0000
               GW ET     =           0.0000                 GW ET     =           0.0000
     SURFACE LEAKAGE     =           0.0000       SURFACE LEAKAGE     =           0.0000
           AG WELLS      =           0.0000             AG WELLS      =           0.0000

                TOTAL IN =   106456480.0000                  TOTAL IN =          14.6394

          OUT:                                     OUT:
          ----                                     ----
             STORAGE     =    18360464.0000               STORAGE     =           1.2169
       CONSTANT HEAD     =           0.0000         CONSTANT HEAD     =           0.0000
     HEAD DEP BOUNDS     =     2393986.2500       HEAD DEP BOUNDS     =           0.2940
      STREAM LEAKAGE     =    85672008.0000        STREAM LEAKAGE     =          13.0412
        UZF RECHARGE     =           0.0000          UZF RECHARGE     =           0.0000
               GW ET     =       33885.2656                 GW ET     =       8.7233E-02
     SURFACE LEAKAGE     =           0.0000       SURFACE LEAKAGE     =           0.0000
           AG WELLS      =           0.0000             AG WELLS      =           0.0000

               TOTAL OUT =   106460344.0000                 TOTAL OUT =          14.6393

                IN - OUT =       -3864.0000                  IN - OUT =       1.1444E-04

     PERCENT DISCREPANCY =          -0.00         PERCENT DISCREPANCY =           0.00






         TIME SUMMARY AT END OF TIME STEP    3 IN STRESS PERIOD    5
                    SECONDS     MINUTES      HOURS       DAYS        YEARS
                    -----------------------------------------------------------
   TIME STEP LENGTH  87667.      1461.1      24.352      1.0147     2.77799E-03
 STRESS PERIOD TIME 2.63000E+05  4383.3      73.056      3.0440     8.33397E-03
         TOTAL TIME 8.23939E+06 1.37323E+05  2288.7      95.363     0.26109    
1
 
 SOLVING FOR HEAD 
                                                   Max.-Head-Change                         Max.-Flux-Residual
  Residual-Control   Outer-Iter.   Inner-Iter.     Column Row Layer    Maximum-Head-Change  Column Row Layer    Maximum-Flux-Residual          L2-NORM 
          0                 1           2             2   13     1      -0.9012204508E-02       4   13    1        -0.5145546965E+00      0.9608311675E+00
          0                 2           2             4   13     1       0.8490975119E-03       4   13    1         0.5104403450E-01      0.9383268350E-01
          0                 3           1             4   13     1      -0.5713601484E-04       4   13    1        -0.3531432952E-02      0.6351432039E-02

    ------------------------------------------------
       NWT REQUIRED            3 OUTER ITERATIONS 
       AND A TOTAL OF          5 INNER ITERATIONS.
    ------------------------------------------------

 OUTPUT CONTROL FOR STRESS PERIOD    5   TIME STEP    4
    PRINT BUDGET
    SAVE BUDGET
 UBDSV1 SAVING "         STORAGE" ON UNIT 102 AT TIME STEP  4, STRESS PERIOD   5
 UBDSV2 SAVING "   CONSTANT HEAD" ON UNIT 102 AT TIME STEP  4, STRESS PERIOD   5
 UBDSV1 SAVING "FLOW RIGHT FACE " ON UNIT 102 AT TIME STEP  4, STRESS PERIOD   5
 UBDSV1 SAVING "FLOW FRONT FACE " ON UNIT 102 AT TIME STEP  4, STRESS PERIOD   5

  HEAD DEP BOUNDS   PERIOD    5   STEP     4
 BOUNDARY      1   LAYER   1   ROW    13   COL     1   RATE   -0.293813    
 BOUNDARY      2   LAYER   1   ROW    14   COL     9   RATE    0.285739    



 STREAM LISTING     PERIOD      5   STEP        4

 LAYER ROW COL. STREAM  RCH.  FLOW INTO     FLOW TO   FLOW OUT OF   OVRLND.     DIRECT     STREAM       STREAM     STREAM     STREAM   STREAMBED  STREAMBED
                SEG.NO.  NO.  STRM. RCH.    AQUIFER    STRM. RCH.    RUNOFF     PRECIP       ET          HEAD       DEPTH      WIDTH   CONDCTNC.   GRADIENT

   1    1    1     1     1    2.1000E+01  2.2591E-01   2.0774E+01  0.000E+00  0.000E+00  0.000E+00  1.09416E+03  1.115E+00  1.220E+01  5.490E-02  1.372E+00
   1    2    2     1     2    2.0774E+01  3.4916E-01   2.0425E+01  0.000E+00  0.000E+00  0.000E+00  1.08917E+03  1.110E+00  1.214E+01  8.495E-02  1.370E+00
   1    3    3     1     3    2.0425E+01  2.9709E-01   2.0128E+01  0.000E+00  0.000E+00  0.000E+00  1.08352E+03  1.105E+00  1.206E+01  7.238E-02  1.368E+00
   1    3    4     1     4    2.0128E+01  2.7299E-01   1.9855E+01  0.000E+00  0.000E+00  0.000E+00  1.07851E+03  1.100E+00  1.200E+01  6.659E-02  1.367E+00
   1    4    5     2     1    1.7855E+01  3.1056E-01   1.7544E+01  0.000E+00  0.000E+00  0.000E+00  1.07292E+03  9.816E-01  1.200E+01  7.800E-02  1.327E+00
   1    5    6     2     2    1.7544E+01  2.3834E-01   1.7306E+01  0.000E+00  0.000E+00  0.000E+00  1.06748E+03  9.724E-01  1.200E+01  6.000E-02  1.324E+00
   1    6    6     2     3    1.7306E+01  2.3786E-01   1.7068E+01  0.000E+00  0.000E+00  0.000E+00  1.06276E+03  9.644E-01  1.200E+01  6.000E-02  1.321E+00
   1    7    6     2     4    1.7068E+01  2.3738E-01   1.6831E+01  0.000E+00  0.000E+00  0.000E+00  1.05803E+03  9.564E-01  1.200E+01  6.000E-02  1.319E+00
   1    8    6     2     5    1.6831E+01  2.3690E-01   1.6594E+01  0.000E+00  0.000E+00  0.000E+00  1.05331E+03  9.483E-01  1.200E+01  6.000E-02  1.316E+00
   1    3    5     3     1    2.0000E+00  2.8252E-01   1.7175E+00  0.000E+00  0.000E+00  0.000E+00  1.07555E+03  1.909E+00  9.636E+00  7.227E-02  1.955E+00
   1    3    6     3     2    1.7175E+00  2.4905E-01   1.4684E+00  0.000E+00  0.000E+00  0.000E+00  1.07264E+03  1.727E+00  8.909E+00  6.682E-02  1.864E+00
   1    3    7     3     3    1.4684E+00  1.9718E-01   1.2712E+00  0.000E+00  0.000E+00  0.000E+00  1.06987E+03  1.555E+00  8.218E+00  5.547E-02  1.777E+00
   1    4    8     3     4    1.2712E+00  2.2567E-01   1.0456E+00  0.000E+00  0.000E+00  0.000E+00  1.06682E+03  1.364E+00  7.455E+00  6.709E-02  1.682E+00
   1    5    8     3     5    1.0456E+00  1.5790E-01   8.8768E-01  0.000E+00  0.000E+00  0.000E+00  1.06362E+03  1.164E+00  6.655E+00  4.991E-02  1.582E+00
   1    6    8     3     6    8.8768E-01  5.5980E-02   8.3170E-01  0.000E+00  0.000E+00  0.000E+00  1.06158E+03  1.036E+00  6.145E+00  1.844E-02  1.518E+00
   1    5   10     4     1    1.0000E+01  9.0919E-02   9.9091E+00  0.000E+00  0.000E+00  0.000E+00  1.07836E+03  6.368E-01  1.000E+01  2.500E-02  1.212E+00
   1    5    9     4     2    9.9091E+00  1.8158E-01   9.7275E+00  0.000E+00  0.000E+00  0.000E+00  1.07154E+03  6.315E-01  1.000E+01  5.000E-02  1.211E+00
   1    6    8     4     3    9.7275E+00  1.2689E-01   9.6006E+00  0.000E+00  0.000E+00  0.000E+00  1.06381E+03  6.256E-01  1.000E+01  3.500E-02  1.209E+00
   1    6    8     5     1    1.0432E+01  2.2686E-01   1.0205E+01  0.000E+00  0.000E+00  0.000E+00  1.05868E+03  6.790E-01  1.542E+01  6.166E-02  1.226E+00
   1    7    7     5     2    1.0205E+01  2.7894E-01   9.9265E+00  0.000E+00  0.000E+00  0.000E+00  1.05417E+03  6.732E-01  1.519E+01  7.594E-02  1.224E+00
   1    8    7     5     3    9.9265E+00  1.9221E-01   9.7343E+00  0.000E+00  0.000E+00  0.000E+00  1.04992E+03  6.676E-01  1.497E+01  5.241E-02  1.223E+00
   1    8    6     5     4    9.7343E+00  1.3577E-01   9.5985E+00  0.000E+00  0.000E+00  0.000E+00  1.04691E+03  6.637E-01  1.482E+01  3.706E-02  1.221E+00
   1    9    6     6     1    2.6192E+01  2.5512E-01   2.5937E+01  0.000E+00  0.000E+00  0.000E+00  1.04398E+03  1.252E+00  1.200E+01  6.000E-02  1.417E+00
   1   10    7     6     2    2.5937E+01  2.5468E-01   2.5682E+01  0.000E+00  0.000E+00  0.000E+00  1.03943E+03  1.245E+00  1.200E+01  6.000E-02  1.415E+00
   1   11    7     6     3    2.5682E+01  2.5424E-01   2.5428E+01  0.000E+00  0.000E+00  0.000E+00  1.03487E+03  1.237E+00  1.200E+01  6.000E-02  1.412E+00
   1   12    7     6     4    2.5428E+01  2.5379E-01   2.5174E+01  0.000E+00  0.000E+00  0.000E+00  1.03032E+03  1.230E+00  1.200E+01  6.000E-02  1.410E+00
   1   13    7     6     5    2.5174E+01  7.6075E-05   2.5174E+01  0.000E+00  0.000E+00  0.000E+00  1.02714E+03  1.226E+00  1.200E+01  2.400E-02  1.057E-03
   1   14    9     7     1    1.5000E+02  1.3355E+00   1.4866E+02  0.000E+00  0.000E+00  0.000E+00  1.03987E+03  2.288E+00  5.529E+01  5.593E-01  7.959E-01
   1   13    8     7     2    1.4866E+02  1.8264E+00   1.4684E+02  0.000E+00  0.000E+00  0.000E+00  1.03478E+03  2.279E+00  5.526E+01  6.148E-01  9.903E-01
   1   13    7     7     3    1.4684E+02  1.4285E+00   1.4541E+02  0.000E+00  0.000E+00  0.000E+00  1.02969E+03  2.271E+00  5.522E+01  5.585E-01  8.526E-01
   1   13    6     8     1    1.7058E+02  8.5850E-01   1.6973E+02  0.000E+00  0.000E+00  0.000E+00  1.02483E+03  2.953E+00  4.282E+01  4.364E-01  6.558E-01
   1   13    5     8     2    1.6973E+02  1.0367E-01   1.6962E+02  0.000E+00  0.000E+00  0.000E+00  1.01858E+03  2.950E+00  4.278E+01  4.359E-01  7.928E-02
   1   13    4     8     3    1.6962E+02 -2.9861E+00   1.7261E+02  0.000E+00  0.000E+00  0.000E+00  1.01233E+03  2.959E+00  4.291E+01  4.373E+00 -2.276E-01
   1   13    3     8     4    1.7261E+02 -4.0977E+00   1.7671E+02  0.000E+00  0.000E+00  0.000E+00  1.00611E+03  2.982E+00  4.324E+01  4.407E+00 -3.100E-01
   1   13    2     8     5    1.7671E+02 -3.0307E+00   1.7974E+02  0.000E+00  0.000E+00  0.000E+00  9.99880E+02  3.005E+00  4.357E+01  4.440E+00 -2.275E-01
   1   13    1     8     6    1.7974E+02 -2.2378E+00   1.8197E+02  0.000E+00  0.000E+00  0.000E+00  9.94897E+02  3.022E+00  4.381E+01  2.679E+00 -2.785E-01
   1    8    6     9     1    0.0000E+00  0.0000E+00   0.0000E+00  0.000E+00  0.000E+00  0.000E+00  1.07875E+03  0.000E+00  4.000E+00  0.000E+00  1.000E+00
   1    8    5     9     2    0.0000E+00  0.0000E+00   0.0000E+00  0.000E+00  0.000E+00  0.000E+00  1.07825E+03  0.000E+00  4.000E+00  0.000E+00  1.000E+00



 UBDSV3 SAVING "           GW ET" ON UNIT  61 AT TIME STEP  4, STRESS PERIOD   5
 UBDSV3 SAVING "    UZF RECHARGE" ON UNIT  61 AT TIME STEP  4, STRESS PERIOD   5
 UBDSV3 SAVING " SURFACE LEAKAGE" ON UNIT  61 AT TIME STEP  4, STRESS PERIOD   5
 UBDSV3 SAVING "       HORT+DUNN" ON UNIT  61 AT TIME STEP  4, STRESS PERIOD   5
 UBDSV3 SAVING "  STORAGE CHANGE" ON UNIT  61 AT TIME STEP  4, STRESS PERIOD   5


UNSATURATED ZONE PACKAGE VOLUMETRIC BUDGET FOR  TIME STEP     4 STRESS PERIOD    5
  ------------------------------------------------------------------------------



     CUMULATIVE VOLUMES      L**3       RATES FOR THIS TIME STEP      L**3/T
     ------------------                 ------------------------

           IN:                                      IN:
           ---                                      ---
        INFILTRATION =     8361851.1555          INFILTRATION =           0.8475

          OUT:                                     OUT:
          ----                                     ----
              UZF ET =     8204725.5817                UZF ET =           4.5676
        UZF RECHARGE =       73224.0000          UZF RECHARGE =       0.0000E+00

            IN - OUT =       83901.5738              IN - OUT =          -3.7201

          STORAGE:                                 STORAGE:
          --------                                 --------
      STORAGE CHANGE =       83900.2869        STORAGE CHANGE =          -3.7201

 PERCENT DISCREPANCY IS DIFFERENCE BETWEEN IN-OUT MINUS CHANGE IN STORAGE
 DIVIDED BY THE AVERAGE OF IN AND OUT TIMES 100

 PERCENT DISCREPANCY =           0.00     PERCENT DISCREPANCY =           0.00






 

            AG WELLS      PERIOD    5   STEP   4
 AG WELL      1   LAYER   1   ROW     6   COL     4   RATE     0.00000    
 AG WELL      2   LAYER   1   ROW     6   COL     5   RATE     0.00000    
 AG WELL      3   LAYER   1   ROW     7   COL     4   RATE     0.00000    
 AG WELL      4   LAYER   1   ROW     7   COL     5   RATE     0.00000    
 AG WELL      5   LAYER   1   ROW     8   COL     4   RATE     0.00000    
 AG WELL      6   LAYER   1   ROW     8   COL     5   RATE     0.00000    
 
 

   DIVERSION SEGMENTS     PERIOD    5   STEP   4
 SEGMENT      9   RATE     0.00000    
 
 

        SW IRRIGATION     PERIOD    5   STEP   4
 SEGMENT      9   ROW     6   COL     4   RATE     0.00000    
 SEGMENT      9   ROW     6   COL     5   RATE     0.00000    
 SEGMENT      9   ROW     7   COL     4   RATE     0.00000    
 SEGMENT      9   ROW     7   COL     5   RATE     0.00000    
 SEGMENT      9   ROW     8   COL     4   RATE     0.00000    
 SEGMENT      9   ROW     8   COL     5   RATE     0.00000    
 
 

        GW IRRIGATION     PERIOD    5   STEP   4
 AG WELL      1   ROW     6   COL     4   RATE     0.00000    
 AG WELL      2   ROW     6   COL     5   RATE     0.00000    
 AG WELL      3   ROW     7   COL     4   RATE     0.00000    
 AG WELL      4   ROW     7   COL     5   RATE     0.00000    
 AG WELL      5   ROW     8   COL     4   RATE     0.00000    
 AG WELL      6   ROW     8   COL     5   RATE     0.00000    
 
1
  VOLUMETRIC BUDGET FOR AGRICULTURAL FIELDS AT  END OF TIME STEP    4, STRESS PERIOD   5
  ------------------------------------------------------------------------------

     CUMULATIVE VOLUMES      L**3       RATES FOR THIS TIME STEP      L**3/T
     ------------------                 ------------------------

           IN:                                      IN:
           ---                                      ---
               AG WELLS  =           0.0000                 AG WELLS  =           0.0000
      DIVERSION SEGMENTS =     1304636.5000        DIVERSION SEGMENTS =           0.0000
           GW IRRIGATION =           0.0000             GW IRRIGATION =           0.0000
           SW IRRIGATION =           0.0000             SW IRRIGATION =           0.0000
        SYSTEM LOSSES GW =           0.0000          SYSTEM LOSSES GW =           0.0000
        SYSTEM LOSSES SW =           0.0000          SYSTEM LOSSES SW =           0.0000

                TOTAL IN =     1304636.5000                  TOTAL IN =           0.0000

          OUT:                                     OUT:
          ----                                     ----
               AG WELLS  =           0.0000                 AG WELLS  =           0.0000
      DIVERSION SEGMENTS =           0.0000        DIVERSION SEGMENTS =           0.0000
           GW IRRIGATION =           0.0000             GW IRRIGATION =           0.0000
           SW IRRIGATION =     1304662.5000             SW IRRIGATION =           0.0000
        SYSTEM LOSSES GW =           0.0000          SYSTEM LOSSES GW =           0.0000
        SYSTEM LOSSES SW =           0.0000          SYSTEM LOSSES SW =           0.0000

               TOTAL OUT =     1304662.5000                 TOTAL OUT =           0.0000

                IN - OUT =         -26.0000                  IN - OUT =           0.0000

     PERCENT DISCREPANCY =          -0.00         PERCENT DISCREPANCY =           0.00



1
  VOLUMETRIC BUDGET FOR ENTIRE MODEL AT END OF TIME STEP    4, STRESS PERIOD   5
  ------------------------------------------------------------------------------

     CUMULATIVE VOLUMES      L**3       RATES FOR THIS TIME STEP      L**3/T
     ------------------                 ------------------------

           IN:                                      IN:
           ---                                      ---
             STORAGE     =     5363971.0000               STORAGE     =           2.2687
       CONSTANT HEAD     =           0.0000         CONSTANT HEAD     =           0.0000
     HEAD DEP BOUNDS     =     2378927.5000       HEAD DEP BOUNDS     =           0.2857
      STREAM LEAKAGE     =    99861784.0000        STREAM LEAKAGE     =          11.3782
        UZF RECHARGE     =       73223.9531          UZF RECHARGE     =           0.0000
               GW ET     =           0.0000                 GW ET     =           0.0000
     SURFACE LEAKAGE     =           0.0000       SURFACE LEAKAGE     =           0.0000
           AG WELLS      =           0.0000             AG WELLS      =           0.0000

                TOTAL IN =   107677904.0000                  TOTAL IN =          13.9327

          OUT:                                     OUT:
          ----                                     ----
             STORAGE     =    18467308.0000               STORAGE     =           1.2188
       CONSTANT HEAD     =           0.0000         CONSTANT HEAD     =           0.0000
     HEAD DEP BOUNDS     =     2419743.7500       HEAD DEP BOUNDS     =           0.2938
      STREAM LEAKAGE     =    86754888.0000        STREAM LEAKAGE     =          12.3522
        UZF RECHARGE     =           0.0000          UZF RECHARGE     =           0.0000
               GW ET     =       39807.1055                 GW ET     =       6.7549E-02
     SURFACE LEAKAGE     =           0.0000       SURFACE LEAKAGE     =           0.0000
           AG WELLS      =           0.0000             AG WELLS      =           0.0000

               TOTAL OUT =   107681744.0000                 TOTAL OUT =          13.9324

                IN - OUT =       -3840.0000                  IN - OUT =       3.0708E-04

     PERCENT DISCREPANCY =          -0.00         PERCENT DISCREPANCY =           0.00






         TIME SUMMARY AT END OF TIME STEP    4 IN STRESS PERIOD    5
                    SECONDS     MINUTES      HOURS       DAYS        YEARS
                    -----------------------------------------------------------
   TIME STEP LENGTH  87667.      1461.1      24.352      1.0147     2.77799E-03
 STRESS PERIOD TIME 3.50667E+05  5844.4      97.407      4.0586     1.11120E-02
         TOTAL TIME 8.32706E+06 1.38784E+05  2313.1      96.378     0.26387    
1
 
 SOLVING FOR HEAD 
                                                   Max.-Head-Change                         Max.-Flux-Residual
  Residual-Control   Outer-Iter.   Inner-Iter.     Column Row Layer    Maximum-Head-Change  Column Row Layer    Maximum-Flux-Residual          L2-NORM 
          0                 1           2             2   13     1      -0.8344628015E-02       2   13    1        -0.4694183938E+00      0.8811276939E+00
          0                 2           2             4    7     1      -0.1155444415E-01       5    6    1        -0.6219171636E+00      0.1522730623E+01
          0                 3           2             4    7     1       0.1201676563E-01       5    6    1         0.6635309672E+00      0.1631055232E+01
          0                 4           2             4    7     1      -0.4781945141E-03       4    6    1        -0.2728405586E-01      0.6780508461E-01
          0                 5           1             4   13     1      -0.8188636400E-05       4   13    1        -0.5053408977E-03      0.1206005669E-02

    ------------------------------------------------
       NWT REQUIRED            5 OUTER ITERATIONS 
       AND A TOTAL OF          9 INNER ITERATIONS.
    ------------------------------------------------

 NO OUTPUT CONTROL FOR STRESS PERIOD    5   TIME STEP    5
 
 SOLVING FOR HEAD 
                                                   Max.-Head-Change                         Max.-Flux-Residual
  Residual-Control   Outer-Iter.   Inner-Iter.     Column Row Layer    Maximum-Head-Change  Column Row Layer    Maximum-Flux-Residual          L2-NORM 
          0                 1           2             2   13     1      -0.7528729180E-02       2   13    1        -0.4235423515E+00      0.7878329682E+00
          0                 2           2             2   13     1       0.7045944431E-03       2   13    1         0.4074527327E-01      0.7700143633E-01
          0                 3           1             2   13     1      -0.4537458583E-04       2   13    1        -0.2696894609E-02      0.5216936560E-02

    ------------------------------------------------
       NWT REQUIRED            3 OUTER ITERATIONS 
       AND A TOTAL OF          5 INNER ITERATIONS.
    ------------------------------------------------

 OUTPUT CONTROL FOR STRESS PERIOD    5   TIME STEP    6
    PRINT BUDGET
    SAVE BUDGET
 UBDSV1 SAVING "         STORAGE" ON UNIT 102 AT TIME STEP  6, STRESS PERIOD   5
 UBDSV2 SAVING "   CONSTANT HEAD" ON UNIT 102 AT TIME STEP  6, STRESS PERIOD   5
 UBDSV1 SAVING "FLOW RIGHT FACE " ON UNIT 102 AT TIME STEP  6, STRESS PERIOD   5
 UBDSV1 SAVING "FLOW FRONT FACE " ON UNIT 102 AT TIME STEP  6, STRESS PERIOD   5

  HEAD DEP BOUNDS   PERIOD    5   STEP     6
 BOUNDARY      1   LAYER   1   ROW    13   COL     1   RATE   -0.293423    
 BOUNDARY      2   LAYER   1   ROW    14   COL     9   RATE    0.285740    



 STREAM LISTING     PERIOD      5   STEP        6

 LAYER ROW COL. STREAM  RCH.  FLOW INTO     FLOW TO   FLOW OUT OF   OVRLND.     DIRECT     STREAM       STREAM     STREAM     STREAM   STREAMBED  STREAMBED
                SEG.NO.  NO.  STRM. RCH.    AQUIFER    STRM. RCH.    RUNOFF     PRECIP       ET          HEAD       DEPTH      WIDTH   CONDCTNC.   GRADIENT

   1    1    1     1     1    2.1000E+01  2.2592E-01   2.0774E+01  0.000E+00  0.000E+00  0.000E+00  1.09416E+03  1.115E+00  1.220E+01  5.490E-02  1.372E+00
   1    2    2     1     2    2.0774E+01  3.4916E-01   2.0425E+01  0.000E+00  0.000E+00  0.000E+00  1.08917E+03  1.110E+00  1.214E+01  8.495E-02  1.370E+00
   1    3    3     1     3    2.0425E+01  2.9709E-01   2.0128E+01  0.000E+00  0.000E+00  0.000E+00  1.08352E+03  1.105E+00  1.206E+01  7.238E-02  1.368E+00
   1    3    4     1     4    2.0128E+01  2.7299E-01   1.9855E+01  0.000E+00  0.000E+00  0.000E+00  1.07851E+03  1.100E+00  1.200E+01  6.659E-02  1.367E+00
   1    4    5     2     1    1.7855E+01  3.1056E-01   1.7544E+01  0.000E+00  0.000E+00  0.000E+00  1.07292E+03  9.816E-01  1.200E+01  7.800E-02  1.327E+00
   1    5    6     2     2    1.7544E+01  2.3834E-01   1.7306E+01  0.000E+00  0.000E+00  0.000E+00  1.06748E+03  9.724E-01  1.200E+01  6.000E-02  1.324E+00
   1    6    6     2     3    1.7306E+01  2.3787E-01   1.7068E+01  0.000E+00  0.000E+00  0.000E+00  1.06276E+03  9.644E-01  1.200E+01  6.000E-02  1.321E+00
   1    7    6     2     4    1.7068E+01  2.3738E-01   1.6831E+01  0.000E+00  0.000E+00  0.000E+00  1.05803E+03  9.564E-01  1.200E+01  6.000E-02  1.319E+00
   1    8    6     2     5    1.6831E+01  2.3690E-01   1.6594E+01  0.000E+00  0.000E+00  0.000E+00  1.05331E+03  9.483E-01  1.200E+01  6.000E-02  1.316E+00
   1    3    5     3     1    2.0000E+00  2.8252E-01   1.7175E+00  0.000E+00  0.000E+00  0.000E+00  1.07555E+03  1.909E+00  9.636E+00  7.227E-02  1.955E+00
   1    3    6     3     2    1.7175E+00  2.4905E-01   1.4684E+00  0.000E+00  0.000E+00  0.000E+00  1.07264E+03  1.727E+00  8.909E+00  6.682E-02  1.864E+00
   1    3    7     3     3    1.4684E+00  1.9718E-01   1.2712E+00  0.000E+00  0.000E+00  0.000E+00  1.06987E+03  1.555E+00  8.218E+00  5.547E-02  1.777E+00
   1    4    8     3     4    1.2712E+00  2.2567E-01   1.0456E+00  0.000E+00  0.000E+00  0.000E+00  1.06682E+03  1.364E+00  7.455E+00  6.709E-02  1.682E+00
   1    5    8     3     5    1.0456E+00  1.5790E-01   8.8768E-01  0.000E+00  0.000E+00  0.000E+00  1.06362E+03  1.164E+00  6.655E+00  4.991E-02  1.582E+00
   1    6    8     3     6    8.8768E-01  5.5980E-02   8.3170E-01  0.000E+00  0.000E+00  0.000E+00  1.06158E+03  1.036E+00  6.145E+00  1.844E-02  1.518E+00
   1    5   10     4     1    1.0000E+01  9.0919E-02   9.9091E+00  0.000E+00  0.000E+00  0.000E+00  1.07836E+03  6.368E-01  1.000E+01  2.500E-02  1.212E+00
   1    5    9     4     2    9.9091E+00  1.8158E-01   9.7275E+00  0.000E+00  0.000E+00  0.000E+00  1.07154E+03  6.315E-01  1.000E+01  5.000E-02  1.211E+00
   1    6    8     4     3    9.7275E+00  1.2689E-01   9.6006E+00  0.000E+00  0.000E+00  0.000E+00  1.06381E+03  6.256E-01  1.000E+01  3.500E-02  1.209E+00
   1    6    8     5     1    1.0432E+01  2.2686E-01   1.0205E+01  0.000E+00  0.000E+00  0.000E+00  1.05868E+03  6.790E-01  1.542E+01  6.166E-02  1.226E+00
   1    7    7     5     2    1.0205E+01  2.7894E-01   9.9265E+00  0.000E+00  0.000E+00  0.000E+00  1.05417E+03  6.732E-01  1.519E+01  7.594E-02  1.224E+00
   1    8    7     5     3    9.9265E+00  1.9221E-01   9.7343E+00  0.000E+00  0.000E+00  0.000E+00  1.04992E+03  6.676E-01  1.497E+01  5.241E-02  1.223E+00
   1    8    6     5     4    9.7343E+00  1.3577E-01   9.5985E+00  0.000E+00  0.000E+00  0.000E+00  1.04691E+03  6.637E-01  1.482E+01  3.706E-02  1.221E+00
   1    9    6     6     1    2.6192E+01  2.5512E-01   2.5937E+01  0.000E+00  0.000E+00  0.000E+00  1.04398E+03  1.252E+00  1.200E+01  6.000E-02  1.417E+00
   1   10    7     6     2    2.5937E+01  2.5468E-01   2.5683E+01  0.000E+00  0.000E+00  0.000E+00  1.03943E+03  1.245E+00  1.200E+01  6.000E-02  1.415E+00
   1   11    7     6     3    2.5683E+01  2.5424E-01   2.5428E+01  0.000E+00  0.000E+00  0.000E+00  1.03487E+03  1.237E+00  1.200E+01  6.000E-02  1.412E+00
   1   12    7     6     4    2.5428E+01  2.5379E-01   2.5175E+01  0.000E+00  0.000E+00  0.000E+00  1.03032E+03  1.230E+00  1.200E+01  6.000E-02  1.410E+00
   1   13    7     6     5    2.5175E+01  7.9781E-05   2.5174E+01  0.000E+00  0.000E+00  0.000E+00  1.02714E+03  1.226E+00  1.200E+01  2.400E-02  1.108E-03
   1   14    9     7     1    1.5000E+02  1.3355E+00   1.4866E+02  0.000E+00  0.000E+00  0.000E+00  1.03987E+03  2.288E+00  5.529E+01  5.593E-01  7.960E-01
   1   13    8     7     2    1.4866E+02  1.8262E+00   1.4684E+02  0.000E+00  0.000E+00  0.000E+00  1.03478E+03  2.279E+00  5.526E+01  6.148E-01  9.902E-01
   1   13    7     7     3    1.4684E+02  1.4286E+00   1.4541E+02  0.000E+00  0.000E+00  0.000E+00  1.02969E+03  2.271E+00  5.522E+01  5.585E-01  8.527E-01
   1   13    6     8     1    1.7058E+02  8.5968E-01   1.6972E+02  0.000E+00  0.000E+00  0.000E+00  1.02483E+03  2.953E+00  4.282E+01  4.364E-01  6.567E-01
   1   13    5     8     2    1.6972E+02  1.0465E-01   1.6962E+02  0.000E+00  0.000E+00  0.000E+00  1.01858E+03  2.950E+00  4.278E+01  4.359E-01  8.002E-02
   1   13    4     8     3    1.6962E+02 -2.9185E+00   1.7254E+02  0.000E+00  0.000E+00  0.000E+00  1.01233E+03  2.959E+00  4.291E+01  4.373E+00 -2.225E-01
   1   13    3     8     4    1.7254E+02 -4.0317E+00   1.7657E+02  0.000E+00  0.000E+00  0.000E+00  1.00611E+03  2.982E+00  4.323E+01  4.406E+00 -3.050E-01
   1   13    2     8     5    1.7657E+02 -2.9594E+00   1.7953E+02  0.000E+00  0.000E+00  0.000E+00  9.99879E+02  3.004E+00  4.356E+01  4.439E+00 -2.223E-01
   1   13    1     8     6    1.7953E+02 -2.2130E+00   1.8174E+02  0.000E+00  0.000E+00  0.000E+00  9.94895E+02  3.020E+00  4.379E+01  2.678E+00 -2.755E-01
   1    8    6     9     1    0.0000E+00  0.0000E+00   0.0000E+00  0.000E+00  0.000E+00  0.000E+00  1.07875E+03  0.000E+00  4.000E+00  0.000E+00  1.000E+00
   1    8    5     9     2    0.0000E+00  0.0000E+00   0.0000E+00  0.000E+00  0.000E+00  0.000E+00  1.07825E+03  0.000E+00  4.000E+00  0.000E+00  1.000E+00



 UBDSV3 SAVING "           GW ET" ON UNIT  61 AT TIME STEP  6, STRESS PERIOD   5
 UBDSV3 SAVING "    UZF RECHARGE" ON UNIT  61 AT TIME STEP  6, STRESS PERIOD   5
 UBDSV3 SAVING " SURFACE LEAKAGE" ON UNIT  61 AT TIME STEP  6, STRESS PERIOD   5
 UBDSV3 SAVING "       HORT+DUNN" ON UNIT  61 AT TIME STEP  6, STRESS PERIOD   5
 UBDSV3 SAVING "  STORAGE CHANGE" ON UNIT  61 AT TIME STEP  6, STRESS PERIOD   5


UNSATURATED ZONE PACKAGE VOLUMETRIC BUDGET FOR  TIME STEP     6 STRESS PERIOD    5
  ------------------------------------------------------------------------------



     CUMULATIVE VOLUMES      L**3       RATES FOR THIS TIME STEP      L**3/T
     ------------------                 ------------------------

           IN:                                      IN:
           ---                                      ---
        INFILTRATION =     9162699.1783          INFILTRATION =           0.8475

          OUT:                                     OUT:
          ----                                     ----
              UZF ET =     9005572.9406                UZF ET =           4.5676
        UZF RECHARGE =       73224.0000          UZF RECHARGE =       0.0000E+00

            IN - OUT =       83902.2377              IN - OUT =          -3.7201

          STORAGE:                                 STORAGE:
          --------                                 --------
      STORAGE CHANGE =       83900.2869        STORAGE CHANGE =          -3.7201

 PERCENT DISCREPANCY IS DIFFERENCE BETWEEN IN-OUT MINUS CHANGE IN STORAGE
 DIVIDED BY THE AVERAGE OF IN AND OUT TIMES 100

 PERCENT DISCREPANCY =           0.00     PERCENT DISCREPANCY =           0.00






 

            AG WELLS      PERIOD    5   STEP   6
 AG WELL      1   LAYER   1   ROW     6   COL     4   RATE     0.00000    
 AG WELL      2   LAYER   1   ROW     6   COL     5   RATE     0.00000    
 AG WELL      3   LAYER   1   ROW     7   COL     4   RATE     0.00000    
 AG WELL      4   LAYER   1   ROW     7   COL     5   RATE     0.00000    
 AG WELL      5   LAYER   1   ROW     8   COL     4   RATE     0.00000    
 AG WELL      6   LAYER   1   ROW     8   COL     5   RATE     0.00000    
 
 

   DIVERSION SEGMENTS     PERIOD    5   STEP   6
 SEGMENT      9   RATE     0.00000    
 
 

        SW IRRIGATION     PERIOD    5   STEP   6
 SEGMENT      9   ROW     6   COL     4   RATE     0.00000    
 SEGMENT      9   ROW     6   COL     5   RATE     0.00000    
 SEGMENT      9   ROW     7   COL     4   RATE     0.00000    
 SEGMENT      9   ROW     7   COL     5   RATE     0.00000    
 SEGMENT      9   ROW     8   COL     4   RATE     0.00000    
 SEGMENT      9   ROW     8   COL     5   RATE     0.00000    
 
 

        GW IRRIGATION     PERIOD    5   STEP   6
 AG WELL      1   ROW     6   COL     4   RATE     0.00000    
 AG WELL      2   ROW     6   COL     5   RATE     0.00000    
 AG WELL      3   ROW     7   COL     4   RATE     0.00000    
 AG WELL      4   ROW     7   COL     5   RATE     0.00000    
 AG WELL      5   ROW     8   COL     4   RATE     0.00000    
 AG WELL      6   ROW     8   COL     5   RATE     0.00000    
 
1
  VOLUMETRIC BUDGET FOR AGRICULTURAL FIELDS AT  END OF TIME STEP    6, STRESS PERIOD   5
  ------------------------------------------------------------------------------

     CUMULATIVE VOLUMES      L**3       RATES FOR THIS TIME STEP      L**3/T
     ------------------                 ------------------------

           IN:                                      IN:
           ---                                      ---
               AG WELLS  =           0.0000                 AG WELLS  =           0.0000
      DIVERSION SEGMENTS =     1956876.5000        DIVERSION SEGMENTS =           0.0000
           GW IRRIGATION =           0.0000             GW IRRIGATION =           0.0000
           SW IRRIGATION =           0.0000             SW IRRIGATION =           0.0000
        SYSTEM LOSSES GW =           0.0000          SYSTEM LOSSES GW =           0.0000
        SYSTEM LOSSES SW =           0.0000          SYSTEM LOSSES SW =           0.0000

                TOTAL IN =     1956876.5000                  TOTAL IN =           0.0000

          OUT:                                     OUT:
          ----                                     ----
               AG WELLS  =           0.0000                 AG WELLS  =           0.0000
      DIVERSION SEGMENTS =           0.0000        DIVERSION SEGMENTS =           0.0000
           GW IRRIGATION =           0.0000             GW IRRIGATION =           0.0000
           SW IRRIGATION =     1956915.5000             SW IRRIGATION =           0.0000
        SYSTEM LOSSES GW =           0.0000          SYSTEM LOSSES GW =           0.0000
        SYSTEM LOSSES SW =           0.0000          SYSTEM LOSSES SW =           0.0000

               TOTAL OUT =     1956915.5000                 TOTAL OUT =           0.0000

                IN - OUT =         -39.0000                  IN - OUT =           0.0000

     PERCENT DISCREPANCY =          -0.00         PERCENT DISCREPANCY =           0.00



1
  VOLUMETRIC BUDGET FOR ENTIRE MODEL AT END OF TIME STEP    6, STRESS PERIOD   5
  ------------------------------------------------------------------------------

     CUMULATIVE VOLUMES      L**3       RATES FOR THIS TIME STEP      L**3/T
     ------------------                 ------------------------

           IN:                                      IN:
           ---                                      ---
             STORAGE     =     5773688.5000               STORAGE     =           1.9407
       CONSTANT HEAD     =           0.0000         CONSTANT HEAD     =           0.0000
     HEAD DEP BOUNDS     =     2429027.2500       HEAD DEP BOUNDS     =           0.2857
      STREAM LEAKAGE     =   101847232.0000        STREAM LEAKAGE     =          11.3802
        UZF RECHARGE     =       73223.9531          UZF RECHARGE     =           0.0000
               GW ET     =           0.0000                 GW ET     =           0.0000
     SURFACE LEAKAGE     =           0.0000       SURFACE LEAKAGE     =           0.0000
           AG WELLS      =           0.0000             AG WELLS      =           0.0000

                TOTAL IN =   110123176.0000                  TOTAL IN =          13.6067

          OUT:                                     OUT:
          ----                                     ----
             STORAGE     =    18670380.0000               STORAGE     =           1.1614
       CONSTANT HEAD     =           0.0000         CONSTANT HEAD     =           0.0000
     HEAD DEP BOUNDS     =     2471205.0000       HEAD DEP BOUNDS     =           0.2934
      STREAM LEAKAGE     =    88939160.0000        STREAM LEAKAGE     =          12.1226
        UZF RECHARGE     =           0.0000          UZF RECHARGE     =           0.0000
               GW ET     =       46231.2031                 GW ET     =       2.9041E-02
     SURFACE LEAKAGE     =           0.0000       SURFACE LEAKAGE     =           0.0000
           AG WELLS      =           0.0000             AG WELLS      =           0.0000

               TOTAL OUT =   110126976.0000                 TOTAL OUT =          13.6065

                IN - OUT =       -3800.0000                  IN - OUT =       2.2984E-04

     PERCENT DISCREPANCY =          -0.00         PERCENT DISCREPANCY =           0.00






         TIME SUMMARY AT END OF TIME STEP    6 IN STRESS PERIOD    5
                    SECONDS     MINUTES      HOURS       DAYS        YEARS
                    -----------------------------------------------------------
   TIME STEP LENGTH  87667.      1461.1      24.352      1.0147     2.77799E-03
 STRESS PERIOD TIME 5.26000E+05  8766.7      146.11      6.0880     1.66679E-02
         TOTAL TIME 8.50239E+06 1.41707E+05  2361.8      98.407     0.26942    
1
 
 SOLVING FOR HEAD 
                                                   Max.-Head-Change                         Max.-Flux-Residual
  Residual-Control   Outer-Iter.   Inner-Iter.     Column Row Layer    Maximum-Head-Change  Column Row Layer    Maximum-Flux-Residual          L2-NORM 
          0                 1           2             2   13     1      -0.6969022742E-02       2   13    1        -0.3920716800E+00      0.7266162941E+00
          0                 2           2             4    7     1      -0.1155486059E-01       5    6    1        -0.6218067095E+00      0.1523474219E+01
          0                 3           2             4    7     1       0.1201679940E-01       5    6    1         0.6635231577E+00      0.1630970766E+01
          0                 4           2             4    7     1      -0.4782010895E-03       4    6    1        -0.2730714486E-01      0.6779199264E-01
          0                 5           1             4   13     1      -0.8211430402E-05       4   13    1        -0.4970046739E-03      0.1199753364E-02

    ------------------------------------------------
       NWT REQUIRED            5 OUTER ITERATIONS 
       AND A TOTAL OF          9 INNER ITERATIONS.
    ------------------------------------------------

 OUTPUT CONTROL FOR STRESS PERIOD    5   TIME STEP    7
    PRINT BUDGET
    SAVE BUDGET
 UBDSV1 SAVING "         STORAGE" ON UNIT 102 AT TIME STEP  7, STRESS PERIOD   5
 UBDSV2 SAVING "   CONSTANT HEAD" ON UNIT 102 AT TIME STEP  7, STRESS PERIOD   5
 UBDSV1 SAVING "FLOW RIGHT FACE " ON UNIT 102 AT TIME STEP  7, STRESS PERIOD   5
 UBDSV1 SAVING "FLOW FRONT FACE " ON UNIT 102 AT TIME STEP  7, STRESS PERIOD   5

  HEAD DEP BOUNDS   PERIOD    5   STEP     7
 BOUNDARY      1   LAYER   1   ROW    13   COL     1   RATE   -0.293212    
 BOUNDARY      2   LAYER   1   ROW    14   COL     9   RATE    0.285741    



 STREAM LISTING     PERIOD      5   STEP        7

 LAYER ROW COL. STREAM  RCH.  FLOW INTO     FLOW TO   FLOW OUT OF   OVRLND.     DIRECT     STREAM       STREAM     STREAM     STREAM   STREAMBED  STREAMBED
                SEG.NO.  NO.  STRM. RCH.    AQUIFER    STRM. RCH.    RUNOFF     PRECIP       ET          HEAD       DEPTH      WIDTH   CONDCTNC.   GRADIENT

   1    1    1     1     1    2.1000E+01  2.2592E-01   2.0774E+01  0.000E+00  0.000E+00  0.000E+00  1.09416E+03  1.115E+00  1.220E+01  5.490E-02  1.372E+00
   1    2    2     1     2    2.0774E+01  3.4916E-01   2.0425E+01  0.000E+00  0.000E+00  0.000E+00  1.08917E+03  1.110E+00  1.214E+01  8.495E-02  1.370E+00
   1    3    3     1     3    2.0425E+01  2.9709E-01   2.0128E+01  0.000E+00  0.000E+00  0.000E+00  1.08352E+03  1.105E+00  1.206E+01  7.238E-02  1.368E+00
   1    3    4     1     4    2.0128E+01  2.7299E-01   1.9855E+01  0.000E+00  0.000E+00  0.000E+00  1.07851E+03  1.100E+00  1.200E+01  6.659E-02  1.367E+00
   1    4    5     2     1    1.7855E+01  3.1056E-01   1.7544E+01  0.000E+00  0.000E+00  0.000E+00  1.07292E+03  9.816E-01  1.200E+01  7.800E-02  1.327E+00
   1    5    6     2     2    1.7544E+01  2.3834E-01   1.7306E+01  0.000E+00  0.000E+00  0.000E+00  1.06748E+03  9.724E-01  1.200E+01  6.000E-02  1.324E+00
   1    6    6     2     3    1.7306E+01  2.3787E-01   1.7068E+01  0.000E+00  0.000E+00  0.000E+00  1.06276E+03  9.644E-01  1.200E+01  6.000E-02  1.321E+00
   1    7    6     2     4    1.7068E+01  2.3738E-01   1.6831E+01  0.000E+00  0.000E+00  0.000E+00  1.05803E+03  9.564E-01  1.200E+01  6.000E-02  1.319E+00
   1    8    6     2     5    1.6831E+01  2.3690E-01   1.6594E+01  0.000E+00  0.000E+00  0.000E+00  1.05331E+03  9.483E-01  1.200E+01  6.000E-02  1.316E+00
   1    3    5     3     1    2.0000E+00  2.8252E-01   1.7175E+00  0.000E+00  0.000E+00  0.000E+00  1.07555E+03  1.909E+00  9.636E+00  7.227E-02  1.955E+00
   1    3    6     3     2    1.7175E+00  2.4905E-01   1.4684E+00  0.000E+00  0.000E+00  0.000E+00  1.07264E+03  1.727E+00  8.909E+00  6.682E-02  1.864E+00
   1    3    7     3     3    1.4684E+00  1.9718E-01   1.2712E+00  0.000E+00  0.000E+00  0.000E+00  1.06987E+03  1.555E+00  8.218E+00  5.547E-02  1.777E+00
   1    4    8     3     4    1.2712E+00  2.2567E-01   1.0456E+00  0.000E+00  0.000E+00  0.000E+00  1.06682E+03  1.364E+00  7.455E+00  6.709E-02  1.682E+00
   1    5    8     3     5    1.0456E+00  1.5790E-01   8.8768E-01  0.000E+00  0.000E+00  0.000E+00  1.06362E+03  1.164E+00  6.655E+00  4.991E-02  1.582E+00
   1    6    8     3     6    8.8768E-01  5.5980E-02   8.3170E-01  0.000E+00  0.000E+00  0.000E+00  1.06158E+03  1.036E+00  6.145E+00  1.844E-02  1.518E+00
   1    5   10     4     1    1.0000E+01  9.0919E-02   9.9091E+00  0.000E+00  0.000E+00  0.000E+00  1.07836E+03  6.368E-01  1.000E+01  2.500E-02  1.212E+00
   1    5    9     4     2    9.9091E+00  1.8158E-01   9.7275E+00  0.000E+00  0.000E+00  0.000E+00  1.07154E+03  6.315E-01  1.000E+01  5.000E-02  1.211E+00
   1    6    8     4     3    9.7275E+00  1.2689E-01   9.6006E+00  0.000E+00  0.000E+00  0.000E+00  1.06381E+03  6.256E-01  1.000E+01  3.500E-02  1.209E+00
   1    6    8     5     1    1.0432E+01  2.2686E-01   1.0205E+01  0.000E+00  0.000E+00  0.000E+00  1.05868E+03  6.790E-01  1.542E+01  6.166E-02  1.226E+00
   1    7    7     5     2    1.0205E+01  2.7894E-01   9.9265E+00  0.000E+00  0.000E+00  0.000E+00  1.05417E+03  6.732E-01  1.519E+01  7.594E-02  1.224E+00
   1    8    7     5     3    9.9265E+00  1.9221E-01   9.7343E+00  0.000E+00  0.000E+00  0.000E+00  1.04992E+03  6.676E-01  1.497E+01  5.241E-02  1.223E+00
   1    8    6     5     4    9.7343E+00  1.3577E-01   9.5985E+00  0.000E+00  0.000E+00  0.000E+00  1.04691E+03  6.637E-01  1.482E+01  3.706E-02  1.221E+00
   1    9    6     6     1    1.8752E+01  2.4141E-01   1.8511E+01  0.000E+00  0.000E+00  0.000E+00  1.04375E+03  1.024E+00  1.200E+01  6.000E-02  1.341E+00
   1   10    7     6     2    1.8511E+01  2.4094E-01   1.8270E+01  0.000E+00  0.000E+00  0.000E+00  1.03920E+03  1.016E+00  1.200E+01  6.000E-02  1.339E+00
   1   11    7     6     3    1.8270E+01  2.4046E-01   1.8030E+01  0.000E+00  0.000E+00  0.000E+00  1.03464E+03  1.008E+00  1.200E+01  6.000E-02  1.336E+00
   1   12    7     6     4    1.8030E+01  2.3998E-01   1.7790E+01  0.000E+00  0.000E+00  0.000E+00  1.03009E+03  9.996E-01  1.200E+01  6.000E-02  1.333E+00
   1   13    7     6     5    1.7790E+01 -5.4193E-02   1.7844E+01  0.000E+00  0.000E+00  0.000E+00  1.02691E+03  9.965E-01  1.200E+01  2.400E-01 -7.527E-02
   1   14    9     7     1    1.5000E+02  1.3356E+00   1.4866E+02  0.000E+00  0.000E+00  0.000E+00  1.03987E+03  2.288E+00  5.529E+01  5.593E-01  7.960E-01
   1   13    8     7     2    1.4866E+02  1.8261E+00   1.4684E+02  0.000E+00  0.000E+00  0.000E+00  1.03478E+03  2.279E+00  5.526E+01  6.148E-01  9.901E-01
   1   13    7     7     3    1.4684E+02  1.4289E+00   1.4541E+02  0.000E+00  0.000E+00  0.000E+00  1.02969E+03  2.271E+00  5.522E+01  5.585E-01  8.529E-01
   1   13    6     8     1    1.6325E+02  8.2559E-01   1.6243E+02  0.000E+00  0.000E+00  0.000E+00  1.02478E+03  2.905E+00  4.212E+01  4.292E-01  6.411E-01
   1   13    5     8     2    1.6243E+02  8.2877E-02   1.6234E+02  0.000E+00  0.000E+00  0.000E+00  1.01853E+03  2.902E+00  4.208E+01  4.288E-01  6.443E-02
   1   13    4     8     3    1.6234E+02 -3.0415E+00   1.6539E+02  0.000E+00  0.000E+00  0.000E+00  1.01229E+03  2.912E+00  4.222E+01  4.302E+00 -2.356E-01
   1   13    3     8     4    1.6539E+02 -4.1356E+00   1.6952E+02  0.000E+00  0.000E+00  0.000E+00  1.00606E+03  2.936E+00  4.257E+01  4.338E+00 -3.178E-01
   1   13    2     8     5    1.6952E+02 -3.0726E+00   1.7259E+02  0.000E+00  0.000E+00  0.000E+00  9.99834E+02  2.959E+00  4.291E+01  4.372E+00 -2.342E-01
   1   13    1     8     6    1.7259E+02 -2.2818E+00   1.7488E+02  0.000E+00  0.000E+00  0.000E+00  9.94851E+02  2.976E+00  4.316E+01  2.639E+00 -2.883E-01
   1    8    6     9     1    7.4400E+00  0.0000E+00   7.4400E+00  0.000E+00  0.000E+00  0.000E+00  1.08065E+03  1.898E+00  4.000E+00  0.000E+00  1.633E+00
   1    8    5     9     2    7.4400E+00  0.0000E+00   7.4400E+00  0.000E+00  0.000E+00  0.000E+00  1.08015E+03  1.898E+00  4.000E+00  0.000E+00  1.633E+00



 UBDSV3 SAVING "           GW ET" ON UNIT  61 AT TIME STEP  7, STRESS PERIOD   5
 UBDSV3 SAVING "    UZF RECHARGE" ON UNIT  61 AT TIME STEP  7, STRESS PERIOD   5
 UBDSV3 SAVING " SURFACE LEAKAGE" ON UNIT  61 AT TIME STEP  7, STRESS PERIOD   5
 UBDSV3 SAVING "       HORT+DUNN" ON UNIT  61 AT TIME STEP  7, STRESS PERIOD   5
 UBDSV3 SAVING "  STORAGE CHANGE" ON UNIT  61 AT TIME STEP  7, STRESS PERIOD   5


UNSATURATED ZONE PACKAGE VOLUMETRIC BUDGET FOR  TIME STEP     7 STRESS PERIOD    5
  ------------------------------------------------------------------------------



     CUMULATIVE VOLUMES      L**3       RATES FOR THIS TIME STEP      L**3/T
     ------------------                 ------------------------

           IN:                                      IN:
           ---                                      ---
        INFILTRATION =     9889249.7055          INFILTRATION =           8.2876

          OUT:                                     OUT:
          ----                                     ----
              UZF ET =     9405990.4209                UZF ET =           4.5675
        UZF RECHARGE =       73224.0000          UZF RECHARGE =       0.0000E+00

            IN - OUT =      410035.2846              IN - OUT =           3.7201

          STORAGE:                                 STORAGE:
          --------                                 --------
      STORAGE CHANGE =      410033.3149        STORAGE CHANGE =           3.7201

 PERCENT DISCREPANCY IS DIFFERENCE BETWEEN IN-OUT MINUS CHANGE IN STORAGE
 DIVIDED BY THE AVERAGE OF IN AND OUT TIMES 100

 PERCENT DISCREPANCY =           0.00     PERCENT DISCREPANCY =           0.00






 

            AG WELLS      PERIOD    5   STEP   7
 AG WELL      1   LAYER   1   ROW     6   COL     4   RATE     0.00000    
 AG WELL      2   LAYER   1   ROW     6   COL     5   RATE     0.00000    
 AG WELL      3   LAYER   1   ROW     7   COL     4   RATE     0.00000    
 AG WELL      4   LAYER   1   ROW     7   COL     5   RATE     0.00000    
 AG WELL      5   LAYER   1   ROW     8   COL     4   RATE     0.00000    
 AG WELL      6   LAYER   1   ROW     8   COL     5   RATE     0.00000    
 
 

   DIVERSION SEGMENTS     PERIOD    5   STEP   7
 SEGMENT      9   RATE     7.44000    
 
 

        SW IRRIGATION     PERIOD    5   STEP   7
 SEGMENT      9   ROW     6   COL     4   RATE     1.24002    
 SEGMENT      9   ROW     6   COL     5   RATE     1.24002    
 SEGMENT      9   ROW     7   COL     4   RATE     1.24002    
 SEGMENT      9   ROW     7   COL     5   RATE     1.24002    
 SEGMENT      9   ROW     8   COL     4   RATE     1.24002    
 SEGMENT      9   ROW     8   COL     5   RATE     1.24002    
 
 

        GW IRRIGATION     PERIOD    5   STEP   7
 AG WELL      1   ROW     6   COL     4   RATE     0.00000    
 AG WELL      2   ROW     6   COL     5   RATE     0.00000    
 AG WELL      3   ROW     7   COL     4   RATE     0.00000    
 AG WELL      4   ROW     7   COL     5   RATE     0.00000    
 AG WELL      5   ROW     8   COL     4   RATE     0.00000    
 AG WELL      6   ROW     8   COL     5   RATE     0.00000    
 
1
  VOLUMETRIC BUDGET FOR AGRICULTURAL FIELDS AT  END OF TIME STEP    7, STRESS PERIOD   5
  ------------------------------------------------------------------------------

     CUMULATIVE VOLUMES      L**3       RATES FOR THIS TIME STEP      L**3/T
     ------------------                 ------------------------

           IN:                                      IN:
           ---                                      ---
               AG WELLS  =           0.0000                 AG WELLS  =           0.0000
      DIVERSION SEGMENTS =     2609116.5000        DIVERSION SEGMENTS =           7.4400
           GW IRRIGATION =           0.0000             GW IRRIGATION =           0.0000
           SW IRRIGATION =           0.0000             SW IRRIGATION =           0.0000
        SYSTEM LOSSES GW =           0.0000          SYSTEM LOSSES GW =           0.0000
        SYSTEM LOSSES SW =           0.0000          SYSTEM LOSSES SW =           0.0000

                TOTAL IN =     2609116.5000                  TOTAL IN =           7.4400

          OUT:                                     OUT:
          ----                                     ----
               AG WELLS  =           0.0000                 AG WELLS  =           0.0000
      DIVERSION SEGMENTS =           0.0000        DIVERSION SEGMENTS =           0.0000
           GW IRRIGATION =           0.0000             GW IRRIGATION =           0.0000
           SW IRRIGATION =     2609168.5000             SW IRRIGATION =           7.4401
        SYSTEM LOSSES GW =           0.0000          SYSTEM LOSSES GW =           0.0000
        SYSTEM LOSSES SW =           0.0000          SYSTEM LOSSES SW =           0.0000

               TOTAL OUT =     2609168.5000                 TOTAL OUT =           7.4401

                IN - OUT =         -52.0000                  IN - OUT =      -1.4877E-04

     PERCENT DISCREPANCY =          -0.00         PERCENT DISCREPANCY =          -0.00



1
  VOLUMETRIC BUDGET FOR ENTIRE MODEL AT END OF TIME STEP    7, STRESS PERIOD   5
  ------------------------------------------------------------------------------

     CUMULATIVE VOLUMES      L**3       RATES FOR THIS TIME STEP      L**3/T
     ------------------                 ------------------------

           IN:                                      IN:
           ---                                      ---
             STORAGE     =     5987853.5000               STORAGE     =           2.4429
       CONSTANT HEAD     =           0.0000         CONSTANT HEAD     =           0.0000
     HEAD DEP BOUNDS     =     2454077.2500       HEAD DEP BOUNDS     =           0.2857
      STREAM LEAKAGE     =   102835184.0000        STREAM LEAKAGE     =          11.2695
        UZF RECHARGE     =       73223.9531          UZF RECHARGE     =           0.0000
               GW ET     =           0.0000                 GW ET     =           0.0000
     SURFACE LEAKAGE     =           0.0000       SURFACE LEAKAGE     =           0.0000
           AG WELLS      =           0.0000             AG WELLS      =           0.0000

                TOTAL IN =   111350336.0000                  TOTAL IN =          13.9981

          OUT:                                     OUT:
          ----                                     ----
             STORAGE     =    18766962.0000               STORAGE     =           1.1017
       CONSTANT HEAD     =           0.0000         CONSTANT HEAD     =           0.0000
     HEAD DEP BOUNDS     =     2496910.0000       HEAD DEP BOUNDS     =           0.2932
      STREAM LEAKAGE     =    90042512.0000        STREAM LEAKAGE     =          12.5858
        UZF RECHARGE     =           0.0000          UZF RECHARGE     =           0.0000
               GW ET     =       47751.3125                 GW ET     =       1.7340E-02
     SURFACE LEAKAGE     =           0.0000       SURFACE LEAKAGE     =           0.0000
           AG WELLS      =           0.0000             AG WELLS      =           0.0000

               TOTAL OUT =   111354136.0000                 TOTAL OUT =          13.9980

                IN - OUT =       -3800.0000                  IN - OUT =       1.1158E-04

     PERCENT DISCREPANCY =          -0.00         PERCENT DISCREPANCY =           0.00






         TIME SUMMARY AT END OF TIME STEP    7 IN STRESS PERIOD    5
                    SECONDS     MINUTES      HOURS       DAYS        YEARS
                    -----------------------------------------------------------
   TIME STEP LENGTH  87667.      1461.1      24.352      1.0147     2.77799E-03
 STRESS PERIOD TIME 6.13667E+05  10228.      170.46      7.1026     1.94459E-02
         TOTAL TIME 8.59006E+06 1.43168E+05  2386.1      99.422     0.27220    
1
 
 SOLVING FOR HEAD 
                                                   Max.-Head-Change                         Max.-Flux-Residual
  Residual-Control   Outer-Iter.   Inner-Iter.     Column Row Layer    Maximum-Head-Change  Column Row Layer    Maximum-Flux-Residual          L2-NORM 
          0                 1           2             2   13     1      -0.6252656328E-02       2   13    1        -0.3517791855E+00      0.6538988091E+00
          0                 2           2             2   13     1       0.5861549345E-03       2   13    1         0.3389888062E-01      0.6398631908E-01
          0                 3           1             2   13     1      -0.3782915686E-04       2   13    1        -0.2248626481E-02      0.4340718842E-02

    ------------------------------------------------
       NWT REQUIRED            3 OUTER ITERATIONS 
       AND A TOTAL OF          5 INNER ITERATIONS.
    ------------------------------------------------

 OUTPUT CONTROL FOR STRESS PERIOD    5   TIME STEP    8
    PRINT BUDGET
    SAVE BUDGET
 UBDSV1 SAVING "         STORAGE" ON UNIT 102 AT TIME STEP  8, STRESS PERIOD   5
 UBDSV2 SAVING "   CONSTANT HEAD" ON UNIT 102 AT TIME STEP  8, STRESS PERIOD   5
 UBDSV1 SAVING "FLOW RIGHT FACE " ON UNIT 102 AT TIME STEP  8, STRESS PERIOD   5
 UBDSV1 SAVING "FLOW FRONT FACE " ON UNIT 102 AT TIME STEP  8, STRESS PERIOD   5

  HEAD DEP BOUNDS   PERIOD    5   STEP     8
 BOUNDARY      1   LAYER   1   ROW    13   COL     1   RATE   -0.293063    
 BOUNDARY      2   LAYER   1   ROW    14   COL     9   RATE    0.285742    



 STREAM LISTING     PERIOD      5   STEP        8

 LAYER ROW COL. STREAM  RCH.  FLOW INTO     FLOW TO   FLOW OUT OF   OVRLND.     DIRECT     STREAM       STREAM     STREAM     STREAM   STREAMBED  STREAMBED
                SEG.NO.  NO.  STRM. RCH.    AQUIFER    STRM. RCH.    RUNOFF     PRECIP       ET          HEAD       DEPTH      WIDTH   CONDCTNC.   GRADIENT

   1    1    1     1     1    2.1000E+01  2.2592E-01   2.0774E+01  0.000E+00  0.000E+00  0.000E+00  1.09416E+03  1.115E+00  1.220E+01  5.490E-02  1.372E+00
   1    2    2     1     2    2.0774E+01  3.4916E-01   2.0425E+01  0.000E+00  0.000E+00  0.000E+00  1.08917E+03  1.110E+00  1.214E+01  8.495E-02  1.370E+00
   1    3    3     1     3    2.0425E+01  2.9709E-01   2.0128E+01  0.000E+00  0.000E+00  0.000E+00  1.08352E+03  1.105E+00  1.206E+01  7.238E-02  1.368E+00
   1    3    4     1     4    2.0128E+01  2.7299E-01   1.9855E+01  0.000E+00  0.000E+00  0.000E+00  1.07851E+03  1.100E+00  1.200E+01  6.659E-02  1.367E+00
   1    4    5     2     1    1.7855E+01  3.1056E-01   1.7544E+01  0.000E+00  0.000E+00  0.000E+00  1.07292E+03  9.816E-01  1.200E+01  7.800E-02  1.327E+00
   1    5    6     2     2    1.7544E+01  2.3834E-01   1.7306E+01  0.000E+00  0.000E+00  0.000E+00  1.06748E+03  9.724E-01  1.200E+01  6.000E-02  1.324E+00
   1    6    6     2     3    1.7306E+01  2.3787E-01   1.7068E+01  0.000E+00  0.000E+00  0.000E+00  1.06276E+03  9.644E-01  1.200E+01  6.000E-02  1.321E+00
   1    7    6     2     4    1.7068E+01  2.3738E-01   1.6831E+01  0.000E+00  0.000E+00  0.000E+00  1.05803E+03  9.564E-01  1.200E+01  6.000E-02  1.319E+00
   1    8    6     2     5    1.6831E+01  2.3690E-01   1.6594E+01  0.000E+00  0.000E+00  0.000E+00  1.05331E+03  9.483E-01  1.200E+01  6.000E-02  1.316E+00
   1    3    5     3     1    2.0000E+00  2.8252E-01   1.7175E+00  0.000E+00  0.000E+00  0.000E+00  1.07555E+03  1.909E+00  9.636E+00  7.227E-02  1.955E+00
   1    3    6     3     2    1.7175E+00  2.4905E-01   1.4684E+00  0.000E+00  0.000E+00  0.000E+00  1.07264E+03  1.727E+00  8.909E+00  6.682E-02  1.864E+00
   1    3    7     3     3    1.4684E+00  1.9718E-01   1.2712E+00  0.000E+00  0.000E+00  0.000E+00  1.06987E+03  1.555E+00  8.218E+00  5.547E-02  1.777E+00
   1    4    8     3     4    1.2712E+00  2.2567E-01   1.0456E+00  0.000E+00  0.000E+00  0.000E+00  1.06682E+03  1.364E+00  7.455E+00  6.709E-02  1.682E+00
   1    5    8     3     5    1.0456E+00  1.5790E-01   8.8768E-01  0.000E+00  0.000E+00  0.000E+00  1.06362E+03  1.164E+00  6.655E+00  4.991E-02  1.582E+00
   1    6    8     3     6    8.8768E-01  5.5980E-02   8.3170E-01  0.000E+00  0.000E+00  0.000E+00  1.06158E+03  1.036E+00  6.145E+00  1.844E-02  1.518E+00
   1    5   10     4     1    1.0000E+01  9.0919E-02   9.9091E+00  0.000E+00  0.000E+00  0.000E+00  1.07836E+03  6.368E-01  1.000E+01  2.500E-02  1.212E+00
   1    5    9     4     2    9.9091E+00  1.8158E-01   9.7275E+00  0.000E+00  0.000E+00  0.000E+00  1.07154E+03  6.315E-01  1.000E+01  5.000E-02  1.211E+00
   1    6    8     4     3    9.7275E+00  1.2689E-01   9.6006E+00  0.000E+00  0.000E+00  0.000E+00  1.06381E+03  6.256E-01  1.000E+01  3.500E-02  1.209E+00
   1    6    8     5     1    1.0432E+01  2.2686E-01   1.0205E+01  0.000E+00  0.000E+00  0.000E+00  1.05868E+03  6.790E-01  1.542E+01  6.166E-02  1.226E+00
   1    7    7     5     2    1.0205E+01  2.7894E-01   9.9265E+00  0.000E+00  0.000E+00  0.000E+00  1.05417E+03  6.732E-01  1.519E+01  7.594E-02  1.224E+00
   1    8    7     5     3    9.9265E+00  1.9221E-01   9.7343E+00  0.000E+00  0.000E+00  0.000E+00  1.04992E+03  6.676E-01  1.497E+01  5.241E-02  1.223E+00
   1    8    6     5     4    9.7343E+00  1.3577E-01   9.5985E+00  0.000E+00  0.000E+00  0.000E+00  1.04691E+03  6.637E-01  1.482E+01  3.706E-02  1.221E+00
   1    9    6     6     1    2.6192E+01  2.5512E-01   2.5937E+01  0.000E+00  0.000E+00  0.000E+00  1.04398E+03  1.252E+00  1.200E+01  6.000E-02  1.417E+00
   1   10    7     6     2    2.5937E+01  2.5468E-01   2.5683E+01  0.000E+00  0.000E+00  0.000E+00  1.03943E+03  1.245E+00  1.200E+01  6.000E-02  1.415E+00
   1   11    7     6     3    2.5683E+01  2.5424E-01   2.5428E+01  0.000E+00  0.000E+00  0.000E+00  1.03487E+03  1.237E+00  1.200E+01  6.000E-02  1.412E+00
   1   12    7     6     4    2.5428E+01  2.5379E-01   2.5175E+01  0.000E+00  0.000E+00  0.000E+00  1.03032E+03  1.230E+00  1.200E+01  6.000E-02  1.410E+00
   1   13    7     6     5    2.5175E+01  8.4081E-05   2.5174E+01  0.000E+00  0.000E+00  0.000E+00  1.02714E+03  1.226E+00  1.200E+01  2.400E-02  1.168E-03
   1   14    9     7     1    1.5000E+02  1.3356E+00   1.4866E+02  0.000E+00  0.000E+00  0.000E+00  1.03987E+03  2.288E+00  5.529E+01  5.593E-01  7.960E-01
   1   13    8     7     2    1.4866E+02  1.8260E+00   1.4684E+02  0.000E+00  0.000E+00  0.000E+00  1.03478E+03  2.279E+00  5.526E+01  6.148E-01  9.901E-01
   1   13    7     7     3    1.4684E+02  1.4287E+00   1.4541E+02  0.000E+00  0.000E+00  0.000E+00  1.02969E+03  2.271E+00  5.522E+01  5.585E-01  8.527E-01
   1   13    6     8     1    1.7058E+02  8.6077E-01   1.6972E+02  0.000E+00  0.000E+00  0.000E+00  1.02483E+03  2.953E+00  4.282E+01  4.364E-01  6.575E-01
   1   13    5     8     2    1.6972E+02  1.0567E-01   1.6962E+02  0.000E+00  0.000E+00  0.000E+00  1.01858E+03  2.950E+00  4.278E+01  4.359E-01  8.081E-02
   1   13    4     8     3    1.6962E+02 -2.8636E+00   1.7248E+02  0.000E+00  0.000E+00  0.000E+00  1.01233E+03  2.959E+00  4.291E+01  4.372E+00 -2.183E-01
   1   13    3     8     4    1.7248E+02 -3.9779E+00   1.7646E+02  0.000E+00  0.000E+00  0.000E+00  1.00611E+03  2.981E+00  4.323E+01  4.405E+00 -3.010E-01
   1   13    2     8     5    1.7646E+02 -2.8981E+00   1.7936E+02  0.000E+00  0.000E+00  0.000E+00  9.99878E+02  3.003E+00  4.354E+01  4.437E+00 -2.177E-01
   1   13    1     8     6    1.7936E+02 -2.1899E+00   1.8155E+02  0.000E+00  0.000E+00  0.000E+00  9.94894E+02  3.019E+00  4.378E+01  2.677E+00 -2.727E-01
   1    8    6     9     1    0.0000E+00  0.0000E+00   0.0000E+00  0.000E+00  0.000E+00  0.000E+00  1.07875E+03  0.000E+00  4.000E+00  0.000E+00  1.000E+00
   1    8    5     9     2    0.0000E+00  0.0000E+00   0.0000E+00  0.000E+00  0.000E+00  0.000E+00  1.07825E+03  0.000E+00  4.000E+00  0.000E+00  1.000E+00



 UBDSV3 SAVING "           GW ET" ON UNIT  61 AT TIME STEP  8, STRESS PERIOD   5
 UBDSV3 SAVING "    UZF RECHARGE" ON UNIT  61 AT TIME STEP  8, STRESS PERIOD   5
 UBDSV3 SAVING " SURFACE LEAKAGE" ON UNIT  61 AT TIME STEP  8, STRESS PERIOD   5
 UBDSV3 SAVING "       HORT+DUNN" ON UNIT  61 AT TIME STEP  8, STRESS PERIOD   5
 UBDSV3 SAVING "  STORAGE CHANGE" ON UNIT  61 AT TIME STEP  8, STRESS PERIOD   5


UNSATURATED ZONE PACKAGE VOLUMETRIC BUDGET FOR  TIME STEP     8 STRESS PERIOD    5
  ------------------------------------------------------------------------------



     CUMULATIVE VOLUMES      L**3       RATES FOR THIS TIME STEP      L**3/T
     ------------------                 ------------------------

           IN:                                      IN:
           ---                                      ---
        INFILTRATION =     9963547.2012          INFILTRATION =           0.8475

          OUT:                                     OUT:
          ----                                     ----
              UZF ET =     9806420.2996                UZF ET =           4.5676
        UZF RECHARGE =       73224.0000          UZF RECHARGE =       0.0000E+00

            IN - OUT =       83902.9017              IN - OUT =          -3.7201

          STORAGE:                                 STORAGE:
          --------                                 --------
      STORAGE CHANGE =       83900.2869        STORAGE CHANGE =          -3.7201

 PERCENT DISCREPANCY IS DIFFERENCE BETWEEN IN-OUT MINUS CHANGE IN STORAGE
 DIVIDED BY THE AVERAGE OF IN AND OUT TIMES 100

 PERCENT DISCREPANCY =           0.00     PERCENT DISCREPANCY =           0.00






 

            AG WELLS      PERIOD    5   STEP   8
 AG WELL      1   LAYER   1   ROW     6   COL     4   RATE     0.00000    
 AG WELL      2   LAYER   1   ROW     6   COL     5   RATE     0.00000    
 AG WELL      3   LAYER   1   ROW     7   COL     4   RATE     0.00000    
 AG WELL      4   LAYER   1   ROW     7   COL     5   RATE     0.00000    
 AG WELL      5   LAYER   1   ROW     8   COL     4   RATE     0.00000    
 AG WELL      6   LAYER   1   ROW     8   COL     5   RATE     0.00000    
 
 

   DIVERSION SEGMENTS     PERIOD    5   STEP   8
 SEGMENT      9   RATE     0.00000    
 
 

        SW IRRIGATION     PERIOD    5   STEP   8
 SEGMENT      9   ROW     6   COL     4   RATE     0.00000    
 SEGMENT      9   ROW     6   COL     5   RATE     0.00000    
 SEGMENT      9   ROW     7   COL     4   RATE     0.00000    
 SEGMENT      9   ROW     7   COL     5   RATE     0.00000    
 SEGMENT      9   ROW     8   COL     4   RATE     0.00000    
 SEGMENT      9   ROW     8   COL     5   RATE     0.00000    
 
 

        GW IRRIGATION     PERIOD    5   STEP   8
 AG WELL      1   ROW     6   COL     4   RATE     0.00000    
 AG WELL      2   ROW     6   COL     5   RATE     0.00000    
 AG WELL      3   ROW     7   COL     4   RATE     0.00000    
 AG WELL      4   ROW     7   COL     5   RATE     0.00000    
 AG WELL      5   ROW     8   COL     4   RATE     0.00000    
 AG WELL      6   ROW     8   COL     5   RATE     0.00000    
 
1
  VOLUMETRIC BUDGET FOR AGRICULTURAL FIELDS AT  END OF TIME STEP    8, STRESS PERIOD   5
  ------------------------------------------------------------------------------

     CUMULATIVE VOLUMES      L**3       RATES FOR THIS TIME STEP      L**3/T
     ------------------                 ------------------------

           IN:                                      IN:
           ---                                      ---
               AG WELLS  =           0.0000                 AG WELLS  =           0.0000
      DIVERSION SEGMENTS =     2609116.5000        DIVERSION SEGMENTS =           0.0000
           GW IRRIGATION =           0.0000             GW IRRIGATION =           0.0000
           SW IRRIGATION =           0.0000             SW IRRIGATION =           0.0000
        SYSTEM LOSSES GW =           0.0000          SYSTEM LOSSES GW =           0.0000
        SYSTEM LOSSES SW =           0.0000          SYSTEM LOSSES SW =           0.0000

                TOTAL IN =     2609116.5000                  TOTAL IN =           0.0000

          OUT:                                     OUT:
          ----                                     ----
               AG WELLS  =           0.0000                 AG WELLS  =           0.0000
      DIVERSION SEGMENTS =           0.0000        DIVERSION SEGMENTS =           0.0000
           GW IRRIGATION =           0.0000             GW IRRIGATION =           0.0000
           SW IRRIGATION =     2609168.5000             SW IRRIGATION =           0.0000
        SYSTEM LOSSES GW =           0.0000          SYSTEM LOSSES GW =           0.0000
        SYSTEM LOSSES SW =           0.0000          SYSTEM LOSSES SW =           0.0000

               TOTAL OUT =     2609168.5000                 TOTAL OUT =           0.0000

                IN - OUT =         -52.0000                  IN - OUT =           0.0000

     PERCENT DISCREPANCY =          -0.00         PERCENT DISCREPANCY =           0.00



1
  VOLUMETRIC BUDGET FOR ENTIRE MODEL AT END OF TIME STEP    8, STRESS PERIOD   5
  ------------------------------------------------------------------------------

     CUMULATIVE VOLUMES      L**3       RATES FOR THIS TIME STEP      L**3/T
     ------------------                 ------------------------

           IN:                                      IN:
           ---                                      ---
             STORAGE     =     6135117.0000               STORAGE     =           1.6798
       CONSTANT HEAD     =           0.0000         CONSTANT HEAD     =           0.0000
     HEAD DEP BOUNDS     =     2479127.2500       HEAD DEP BOUNDS     =           0.2857
      STREAM LEAKAGE     =   103833024.0000        STREAM LEAKAGE     =          11.3822
        UZF RECHARGE     =       73223.9531          UZF RECHARGE     =           0.0000
               GW ET     =           0.0000                 GW ET     =           0.0000
     SURFACE LEAKAGE     =           0.0000       SURFACE LEAKAGE     =           0.0000
           AG WELLS      =           0.0000             AG WELLS      =           0.0000

                TOTAL IN =   112520488.0000                  TOTAL IN =          13.3478

          OUT:                                     OUT:
          ----                                     ----
             STORAGE     =    18864594.0000               STORAGE     =           1.1137
       CONSTANT HEAD     =           0.0000         CONSTANT HEAD     =           0.0000
     HEAD DEP BOUNDS     =     2522601.7500       HEAD DEP BOUNDS     =           0.2931
      STREAM LEAKAGE     =    91088336.0000        STREAM LEAKAGE     =          11.9295
        UZF RECHARGE     =           0.0000          UZF RECHARGE     =           0.0000
               GW ET     =       48746.6094                 GW ET     =       1.1353E-02
     SURFACE LEAKAGE     =           0.0000       SURFACE LEAKAGE     =           0.0000
           AG WELLS      =           0.0000             AG WELLS      =           0.0000

               TOTAL OUT =   112524280.0000                 TOTAL OUT =          13.3476

                IN - OUT =       -3792.0000                  IN - OUT =       1.6499E-04

     PERCENT DISCREPANCY =          -0.00         PERCENT DISCREPANCY =           0.00






         TIME SUMMARY AT END OF TIME STEP    8 IN STRESS PERIOD    5
                    SECONDS     MINUTES      HOURS       DAYS        YEARS
                    -----------------------------------------------------------
   TIME STEP LENGTH  87667.      1461.1      24.352      1.0147     2.77799E-03
 STRESS PERIOD TIME 7.01333E+05  11689.      194.81      8.1173     2.22239E-02
         TOTAL TIME 8.67773E+06 1.44629E+05  2410.5      100.44     0.27498    
1
 
 SOLVING FOR HEAD 
                                                   Max.-Head-Change                         Max.-Flux-Residual
  Residual-Control   Outer-Iter.   Inner-Iter.     Column Row Layer    Maximum-Head-Change  Column Row Layer    Maximum-Flux-Residual          L2-NORM 
          0                 1           2             2   13     1      -0.5786661689E-02       2   13    1        -0.3255669891E+00      0.6092777866E+00
          0                 2           2             4    7     1      -0.1155518073E-01       5    6    1        -0.6217073152E+00      0.1523878226E+01
          0                 3           2             4    7     1       0.1201682656E-01       5    6    1         0.6635161285E+00      0.1630948100E+01
          0                 4           2             4    7     1      -0.4782073695E-03       4    6    1        -0.2733007432E-01      0.6779520403E-01
          0                 5           1             4   13     1      -0.8239033133E-05       4   13    1        -0.4987038574E-03      0.1199389440E-02

    ------------------------------------------------
       NWT REQUIRED            5 OUTER ITERATIONS 
       AND A TOTAL OF          9 INNER ITERATIONS.
    ------------------------------------------------

 OUTPUT CONTROL FOR STRESS PERIOD    5   TIME STEP    9
    PRINT BUDGET
    SAVE BUDGET
 UBDSV1 SAVING "         STORAGE" ON UNIT 102 AT TIME STEP  9, STRESS PERIOD   5
 UBDSV2 SAVING "   CONSTANT HEAD" ON UNIT 102 AT TIME STEP  9, STRESS PERIOD   5
 UBDSV1 SAVING "FLOW RIGHT FACE " ON UNIT 102 AT TIME STEP  9, STRESS PERIOD   5
 UBDSV1 SAVING "FLOW FRONT FACE " ON UNIT 102 AT TIME STEP  9, STRESS PERIOD   5

  HEAD DEP BOUNDS   PERIOD    5   STEP     9
 BOUNDARY      1   LAYER   1   ROW    13   COL     1   RATE   -0.292867    
 BOUNDARY      2   LAYER   1   ROW    14   COL     9   RATE    0.285742    



 STREAM LISTING     PERIOD      5   STEP        9

 LAYER ROW COL. STREAM  RCH.  FLOW INTO     FLOW TO   FLOW OUT OF   OVRLND.     DIRECT     STREAM       STREAM     STREAM     STREAM   STREAMBED  STREAMBED
                SEG.NO.  NO.  STRM. RCH.    AQUIFER    STRM. RCH.    RUNOFF     PRECIP       ET          HEAD       DEPTH      WIDTH   CONDCTNC.   GRADIENT

   1    1    1     1     1    2.1000E+01  2.2592E-01   2.0774E+01  0.000E+00  0.000E+00  0.000E+00  1.09416E+03  1.115E+00  1.220E+01  5.490E-02  1.372E+00
   1    2    2     1     2    2.0774E+01  3.4916E-01   2.0425E+01  0.000E+00  0.000E+00  0.000E+00  1.08917E+03  1.110E+00  1.214E+01  8.495E-02  1.370E+00
   1    3    3     1     3    2.0425E+01  2.9709E-01   2.0128E+01  0.000E+00  0.000E+00  0.000E+00  1.08352E+03  1.105E+00  1.206E+01  7.238E-02  1.368E+00
   1    3    4     1     4    2.0128E+01  2.7299E-01   1.9855E+01  0.000E+00  0.000E+00  0.000E+00  1.07851E+03  1.100E+00  1.200E+01  6.659E-02  1.367E+00
   1    4    5     2     1    1.7855E+01  3.1056E-01   1.7544E+01  0.000E+00  0.000E+00  0.000E+00  1.07292E+03  9.816E-01  1.200E+01  7.800E-02  1.327E+00
   1    5    6     2     2    1.7544E+01  2.3834E-01   1.7306E+01  0.000E+00  0.000E+00  0.000E+00  1.06748E+03  9.724E-01  1.200E+01  6.000E-02  1.324E+00
   1    6    6     2     3    1.7306E+01  2.3787E-01   1.7068E+01  0.000E+00  0.000E+00  0.000E+00  1.06276E+03  9.644E-01  1.200E+01  6.000E-02  1.321E+00
   1    7    6     2     4    1.7068E+01  2.3738E-01   1.6831E+01  0.000E+00  0.000E+00  0.000E+00  1.05803E+03  9.564E-01  1.200E+01  6.000E-02  1.319E+00
   1    8    6     2     5    1.6831E+01  2.3690E-01   1.6594E+01  0.000E+00  0.000E+00  0.000E+00  1.05331E+03  9.483E-01  1.200E+01  6.000E-02  1.316E+00
   1    3    5     3     1    2.0000E+00  2.8252E-01   1.7175E+00  0.000E+00  0.000E+00  0.000E+00  1.07555E+03  1.909E+00  9.636E+00  7.227E-02  1.955E+00
   1    3    6     3     2    1.7175E+00  2.4905E-01   1.4684E+00  0.000E+00  0.000E+00  0.000E+00  1.07264E+03  1.727E+00  8.909E+00  6.682E-02  1.864E+00
   1    3    7     3     3    1.4684E+00  1.9718E-01   1.2712E+00  0.000E+00  0.000E+00  0.000E+00  1.06987E+03  1.555E+00  8.218E+00  5.547E-02  1.777E+00
   1    4    8     3     4    1.2712E+00  2.2567E-01   1.0456E+00  0.000E+00  0.000E+00  0.000E+00  1.06682E+03  1.364E+00  7.455E+00  6.709E-02  1.682E+00
   1    5    8     3     5    1.0456E+00  1.5790E-01   8.8768E-01  0.000E+00  0.000E+00  0.000E+00  1.06362E+03  1.164E+00  6.655E+00  4.991E-02  1.582E+00
   1    6    8     3     6    8.8768E-01  5.5980E-02   8.3170E-01  0.000E+00  0.000E+00  0.000E+00  1.06158E+03  1.036E+00  6.145E+00  1.844E-02  1.518E+00
   1    5   10     4     1    1.0000E+01  9.0919E-02   9.9091E+00  0.000E+00  0.000E+00  0.000E+00  1.07836E+03  6.368E-01  1.000E+01  2.500E-02  1.212E+00
   1    5    9     4     2    9.9091E+00  1.8158E-01   9.7275E+00  0.000E+00  0.000E+00  0.000E+00  1.07154E+03  6.315E-01  1.000E+01  5.000E-02  1.211E+00
   1    6    8     4     3    9.7275E+00  1.2689E-01   9.6006E+00  0.000E+00  0.000E+00  0.000E+00  1.06381E+03  6.256E-01  1.000E+01  3.500E-02  1.209E+00
   1    6    8     5     1    1.0432E+01  2.2686E-01   1.0205E+01  0.000E+00  0.000E+00  0.000E+00  1.05868E+03  6.790E-01  1.542E+01  6.166E-02  1.226E+00
   1    7    7     5     2    1.0205E+01  2.7894E-01   9.9265E+00  0.000E+00  0.000E+00  0.000E+00  1.05417E+03  6.732E-01  1.519E+01  7.594E-02  1.224E+00
   1    8    7     5     3    9.9265E+00  1.9221E-01   9.7343E+00  0.000E+00  0.000E+00  0.000E+00  1.04992E+03  6.676E-01  1.497E+01  5.241E-02  1.223E+00
   1    8    6     5     4    9.7343E+00  1.3577E-01   9.5985E+00  0.000E+00  0.000E+00  0.000E+00  1.04691E+03  6.637E-01  1.482E+01  3.706E-02  1.221E+00
   1    9    6     6     1    1.8752E+01  2.4141E-01   1.8511E+01  0.000E+00  0.000E+00  0.000E+00  1.04375E+03  1.024E+00  1.200E+01  6.000E-02  1.341E+00
   1   10    7     6     2    1.8511E+01  2.4094E-01   1.8270E+01  0.000E+00  0.000E+00  0.000E+00  1.03920E+03  1.016E+00  1.200E+01  6.000E-02  1.339E+00
   1   11    7     6     3    1.8270E+01  2.4046E-01   1.8030E+01  0.000E+00  0.000E+00  0.000E+00  1.03464E+03  1.008E+00  1.200E+01  6.000E-02  1.336E+00
   1   12    7     6     4    1.8030E+01  2.3998E-01   1.7790E+01  0.000E+00  0.000E+00  0.000E+00  1.03009E+03  9.996E-01  1.200E+01  6.000E-02  1.333E+00
   1   13    7     6     5    1.7790E+01 -5.4148E-02   1.7844E+01  0.000E+00  0.000E+00  0.000E+00  1.02691E+03  9.965E-01  1.200E+01  2.400E-01 -7.521E-02
   1   14    9     7     1    1.5000E+02  1.3356E+00   1.4866E+02  0.000E+00  0.000E+00  0.000E+00  1.03987E+03  2.288E+00  5.529E+01  5.593E-01  7.960E-01
   1   13    8     7     2    1.4866E+02  1.8259E+00   1.4684E+02  0.000E+00  0.000E+00  0.000E+00  1.03478E+03  2.279E+00  5.526E+01  6.148E-01  9.900E-01
   1   13    7     7     3    1.4684E+02  1.4290E+00   1.4541E+02  0.000E+00  0.000E+00  0.000E+00  1.02969E+03  2.271E+00  5.522E+01  5.585E-01  8.529E-01
   1   13    6     8     1    1.6325E+02  8.2663E-01   1.6243E+02  0.000E+00  0.000E+00  0.000E+00  1.02478E+03  2.905E+00  4.212E+01  4.292E-01  6.419E-01
   1   13    5     8     2    1.6243E+02  8.3904E-02   1.6234E+02  0.000E+00  0.000E+00  0.000E+00  1.01853E+03  2.902E+00  4.208E+01  4.288E-01  6.523E-02
   1   13    4     8     3    1.6234E+02 -2.9924E+00   1.6534E+02  0.000E+00  0.000E+00  0.000E+00  1.01229E+03  2.912E+00  4.222E+01  4.302E+00 -2.318E-01
   1   13    3     8     4    1.6534E+02 -4.0877E+00   1.6942E+02  0.000E+00  0.000E+00  0.000E+00  1.00606E+03  2.935E+00  4.256E+01  4.337E+00 -3.142E-01
   1   13    2     8     5    1.6942E+02 -3.0167E+00   1.7244E+02  0.000E+00  0.000E+00  0.000E+00  9.99833E+02  2.958E+00  4.289E+01  4.371E+00 -2.300E-01
   1   13    1     8     6    1.7244E+02 -2.2598E+00   1.7470E+02  0.000E+00  0.000E+00  0.000E+00  9.94850E+02  2.975E+00  4.314E+01  2.638E+00 -2.856E-01
   1    8    6     9     1    7.4400E+00  0.0000E+00   7.4400E+00  0.000E+00  0.000E+00  0.000E+00  1.08065E+03  1.898E+00  4.000E+00  0.000E+00  1.633E+00
   1    8    5     9     2    7.4400E+00  0.0000E+00   7.4400E+00  0.000E+00  0.000E+00  0.000E+00  1.08015E+03  1.898E+00  4.000E+00  0.000E+00  1.633E+00



 UBDSV3 SAVING "           GW ET" ON UNIT  61 AT TIME STEP  9, STRESS PERIOD   5
 UBDSV3 SAVING "    UZF RECHARGE" ON UNIT  61 AT TIME STEP  9, STRESS PERIOD   5
 UBDSV3 SAVING " SURFACE LEAKAGE" ON UNIT  61 AT TIME STEP  9, STRESS PERIOD   5
 UBDSV3 SAVING "       HORT+DUNN" ON UNIT  61 AT TIME STEP  9, STRESS PERIOD   5
 UBDSV3 SAVING "  STORAGE CHANGE" ON UNIT  61 AT TIME STEP  9, STRESS PERIOD   5


UNSATURATED ZONE PACKAGE VOLUMETRIC BUDGET FOR  TIME STEP     9 STRESS PERIOD    5
  ------------------------------------------------------------------------------



     CUMULATIVE VOLUMES      L**3       RATES FOR THIS TIME STEP      L**3/T
     ------------------                 ------------------------

           IN:                                      IN:
           ---                                      ---
        INFILTRATION =    10690097.7284          INFILTRATION =           8.2876

          OUT:                                     OUT:
          ----                                     ----
              UZF ET =    10206837.7798                UZF ET =           4.5675
        UZF RECHARGE =       73224.0000          UZF RECHARGE =       0.0000E+00

            IN - OUT =      410035.9485              IN - OUT =           3.7201

          STORAGE:                                 STORAGE:
          --------                                 --------
      STORAGE CHANGE =      410033.3149        STORAGE CHANGE =           3.7201

 PERCENT DISCREPANCY IS DIFFERENCE BETWEEN IN-OUT MINUS CHANGE IN STORAGE
 DIVIDED BY THE AVERAGE OF IN AND OUT TIMES 100

 PERCENT DISCREPANCY =           0.00     PERCENT DISCREPANCY =           0.00






 

            AG WELLS      PERIOD    5   STEP   9
 AG WELL      1   LAYER   1   ROW     6   COL     4   RATE     0.00000    
 AG WELL      2   LAYER   1   ROW     6   COL     5   RATE     0.00000    
 AG WELL      3   LAYER   1   ROW     7   COL     4   RATE     0.00000    
 AG WELL      4   LAYER   1   ROW     7   COL     5   RATE     0.00000    
 AG WELL      5   LAYER   1   ROW     8   COL     4   RATE     0.00000    
 AG WELL      6   LAYER   1   ROW     8   COL     5   RATE     0.00000    
 
 

   DIVERSION SEGMENTS     PERIOD    5   STEP   9
 SEGMENT      9   RATE     7.44000    
 
 

        SW IRRIGATION     PERIOD    5   STEP   9
 SEGMENT      9   ROW     6   COL     4   RATE     1.24002    
 SEGMENT      9   ROW     6   COL     5   RATE     1.24002    
 SEGMENT      9   ROW     7   COL     4   RATE     1.24002    
 SEGMENT      9   ROW     7   COL     5   RATE     1.24002    
 SEGMENT      9   ROW     8   COL     4   RATE     1.24002    
 SEGMENT      9   ROW     8   COL     5   RATE     1.24002    
 
 

        GW IRRIGATION     PERIOD    5   STEP   9
 AG WELL      1   ROW     6   COL     4   RATE     0.00000    
 AG WELL      2   ROW     6   COL     5   RATE     0.00000    
 AG WELL      3   ROW     7   COL     4   RATE     0.00000    
 AG WELL      4   ROW     7   COL     5   RATE     0.00000    
 AG WELL      5   ROW     8   COL     4   RATE     0.00000    
 AG WELL      6   ROW     8   COL     5   RATE     0.00000    
 
1
  VOLUMETRIC BUDGET FOR AGRICULTURAL FIELDS AT  END OF TIME STEP    9, STRESS PERIOD   5
  ------------------------------------------------------------------------------

     CUMULATIVE VOLUMES      L**3       RATES FOR THIS TIME STEP      L**3/T
     ------------------                 ------------------------

           IN:                                      IN:
           ---                                      ---
               AG WELLS  =           0.0000                 AG WELLS  =           0.0000
      DIVERSION SEGMENTS =     3261356.5000        DIVERSION SEGMENTS =           7.4400
           GW IRRIGATION =           0.0000             GW IRRIGATION =           0.0000
           SW IRRIGATION =           0.0000             SW IRRIGATION =           0.0000
        SYSTEM LOSSES GW =           0.0000          SYSTEM LOSSES GW =           0.0000
        SYSTEM LOSSES SW =           0.0000          SYSTEM LOSSES SW =           0.0000

                TOTAL IN =     3261356.5000                  TOTAL IN =           7.4400

          OUT:                                     OUT:
          ----                                     ----
               AG WELLS  =           0.0000                 AG WELLS  =           0.0000
      DIVERSION SEGMENTS =           0.0000        DIVERSION SEGMENTS =           0.0000
           GW IRRIGATION =           0.0000             GW IRRIGATION =           0.0000
           SW IRRIGATION =     3261421.5000             SW IRRIGATION =           7.4401
        SYSTEM LOSSES GW =           0.0000          SYSTEM LOSSES GW =           0.0000
        SYSTEM LOSSES SW =           0.0000          SYSTEM LOSSES SW =           0.0000

               TOTAL OUT =     3261421.5000                 TOTAL OUT =           7.4401

                IN - OUT =         -65.0000                  IN - OUT =      -1.4877E-04

     PERCENT DISCREPANCY =          -0.00         PERCENT DISCREPANCY =          -0.00



1
  VOLUMETRIC BUDGET FOR ENTIRE MODEL AT END OF TIME STEP    9, STRESS PERIOD   5
  ------------------------------------------------------------------------------

     CUMULATIVE VOLUMES      L**3       RATES FOR THIS TIME STEP      L**3/T
     ------------------                 ------------------------

           IN:                                      IN:
           ---                                      ---
             STORAGE     =     6328950.5000               STORAGE     =           2.2110
       CONSTANT HEAD     =           0.0000         CONSTANT HEAD     =           0.0000
     HEAD DEP BOUNDS     =     2504177.2500       HEAD DEP BOUNDS     =           0.2857
      STREAM LEAKAGE     =   104821152.0000        STREAM LEAKAGE     =          11.2714
        UZF RECHARGE     =       73223.9531          UZF RECHARGE     =           0.0000
               GW ET     =           0.0000                 GW ET     =           0.0000
     SURFACE LEAKAGE     =           0.0000       SURFACE LEAKAGE     =           0.0000
           AG WELLS      =           0.0000             AG WELLS      =           0.0000

                TOTAL IN =   113727504.0000                  TOTAL IN =          13.7682

          OUT:                                     OUT:
          ----                                     ----
             STORAGE     =    18957626.0000               STORAGE     =           1.0612
       CONSTANT HEAD     =           0.0000         CONSTANT HEAD     =           0.0000
     HEAD DEP BOUNDS     =     2548276.5000       HEAD DEP BOUNDS     =           0.2929
      STREAM LEAKAGE     =    92176344.0000        STREAM LEAKAGE     =          12.4108
        UZF RECHARGE     =           0.0000          UZF RECHARGE     =           0.0000
               GW ET     =       49031.1445                 GW ET     =       3.2456E-03
     SURFACE LEAKAGE     =           0.0000       SURFACE LEAKAGE     =           0.0000
           AG WELLS      =           0.0000             AG WELLS      =           0.0000

               TOTAL OUT =   113731280.0000                 TOTAL OUT =          13.7681

                IN - OUT =       -3776.0000                  IN - OUT =       1.1253E-04

     PERCENT DISCREPANCY =          -0.00         PERCENT DISCREPANCY =           0.00






         TIME SUMMARY AT END OF TIME STEP    9 IN STRESS PERIOD    5
                    SECONDS     MINUTES      HOURS       DAYS        YEARS
                    -----------------------------------------------------------
   TIME STEP LENGTH  87667.      1461.1      24.352      1.0147     2.77799E-03
 STRESS PERIOD TIME 7.89000E+05  13150.      219.17      9.1319     2.50019E-02
         TOTAL TIME 8.76540E+06 1.46090E+05  2434.8      101.45     0.27776    
1
 
 SOLVING FOR HEAD 
                                                   Max.-Head-Change                         Max.-Flux-Residual
  Residual-Control   Outer-Iter.   Inner-Iter.     Column Row Layer    Maximum-Head-Change  Column Row Layer    Maximum-Flux-Residual          L2-NORM 
          0                 1           2             2   13     1      -0.5156506712E-02       2   13    1        -0.2901149492E+00      0.5500875412E+00
          0                 2           2             2   13     1       0.4840047135E-03       2   13    1         0.2800339207E-01      0.5317757307E-01
          0                 3           1             2   13     1      -0.3134507840E-04       2   13    1        -0.1864075078E-02      0.3617248502E-02

    ------------------------------------------------
       NWT REQUIRED            3 OUTER ITERATIONS 
       AND A TOTAL OF          5 INNER ITERATIONS.
    ------------------------------------------------

 OUTPUT CONTROL FOR STRESS PERIOD    5   TIME STEP   10
    PRINT BUDGET
    SAVE BUDGET
 UBDSV1 SAVING "         STORAGE" ON UNIT 102 AT TIME STEP 10, STRESS PERIOD   5
 UBDSV2 SAVING "   CONSTANT HEAD" ON UNIT 102 AT TIME STEP 10, STRESS PERIOD   5
 UBDSV1 SAVING "FLOW RIGHT FACE " ON UNIT 102 AT TIME STEP 10, STRESS PERIOD   5
 UBDSV1 SAVING "FLOW FRONT FACE " ON UNIT 102 AT TIME STEP 10, STRESS PERIOD   5

  HEAD DEP BOUNDS   PERIOD    5   STEP    10
 BOUNDARY      1   LAYER   1   ROW    13   COL     1   RATE   -0.292731    
 BOUNDARY      2   LAYER   1   ROW    14   COL     9   RATE    0.285743    



 STREAM LISTING     PERIOD      5   STEP       10

 LAYER ROW COL. STREAM  RCH.  FLOW INTO     FLOW TO   FLOW OUT OF   OVRLND.     DIRECT     STREAM       STREAM     STREAM     STREAM   STREAMBED  STREAMBED
                SEG.NO.  NO.  STRM. RCH.    AQUIFER    STRM. RCH.    RUNOFF     PRECIP       ET          HEAD       DEPTH      WIDTH   CONDCTNC.   GRADIENT

   1    1    1     1     1    2.1000E+01  2.2592E-01   2.0774E+01  0.000E+00  0.000E+00  0.000E+00  1.09416E+03  1.115E+00  1.220E+01  5.490E-02  1.372E+00
   1    2    2     1     2    2.0774E+01  3.4916E-01   2.0425E+01  0.000E+00  0.000E+00  0.000E+00  1.08917E+03  1.110E+00  1.214E+01  8.495E-02  1.370E+00
   1    3    3     1     3    2.0425E+01  2.9709E-01   2.0128E+01  0.000E+00  0.000E+00  0.000E+00  1.08352E+03  1.105E+00  1.206E+01  7.238E-02  1.368E+00
   1    3    4     1     4    2.0128E+01  2.7299E-01   1.9855E+01  0.000E+00  0.000E+00  0.000E+00  1.07851E+03  1.100E+00  1.200E+01  6.659E-02  1.367E+00
   1    4    5     2     1    1.7855E+01  3.1056E-01   1.7544E+01  0.000E+00  0.000E+00  0.000E+00  1.07292E+03  9.816E-01  1.200E+01  7.800E-02  1.327E+00
   1    5    6     2     2    1.7544E+01  2.3834E-01   1.7306E+01  0.000E+00  0.000E+00  0.000E+00  1.06748E+03  9.724E-01  1.200E+01  6.000E-02  1.324E+00
   1    6    6     2     3    1.7306E+01  2.3787E-01   1.7068E+01  0.000E+00  0.000E+00  0.000E+00  1.06276E+03  9.644E-01  1.200E+01  6.000E-02  1.321E+00
   1    7    6     2     4    1.7068E+01  2.3738E-01   1.6831E+01  0.000E+00  0.000E+00  0.000E+00  1.05803E+03  9.564E-01  1.200E+01  6.000E-02  1.319E+00
   1    8    6     2     5    1.6831E+01  2.3690E-01   1.6594E+01  0.000E+00  0.000E+00  0.000E+00  1.05331E+03  9.483E-01  1.200E+01  6.000E-02  1.316E+00
   1    3    5     3     1    2.0000E+00  2.8252E-01   1.7175E+00  0.000E+00  0.000E+00  0.000E+00  1.07555E+03  1.909E+00  9.636E+00  7.227E-02  1.955E+00
   1    3    6     3     2    1.7175E+00  2.4905E-01   1.4684E+00  0.000E+00  0.000E+00  0.000E+00  1.07264E+03  1.727E+00  8.909E+00  6.682E-02  1.864E+00
   1    3    7     3     3    1.4684E+00  1.9718E-01   1.2712E+00  0.000E+00  0.000E+00  0.000E+00  1.06987E+03  1.555E+00  8.218E+00  5.547E-02  1.777E+00
   1    4    8     3     4    1.2712E+00  2.2567E-01   1.0456E+00  0.000E+00  0.000E+00  0.000E+00  1.06682E+03  1.364E+00  7.455E+00  6.709E-02  1.682E+00
   1    5    8     3     5    1.0456E+00  1.5790E-01   8.8768E-01  0.000E+00  0.000E+00  0.000E+00  1.06362E+03  1.164E+00  6.655E+00  4.991E-02  1.582E+00
   1    6    8     3     6    8.8768E-01  5.5980E-02   8.3170E-01  0.000E+00  0.000E+00  0.000E+00  1.06158E+03  1.036E+00  6.145E+00  1.844E-02  1.518E+00
   1    5   10     4     1    1.0000E+01  9.0919E-02   9.9091E+00  0.000E+00  0.000E+00  0.000E+00  1.07836E+03  6.368E-01  1.000E+01  2.500E-02  1.212E+00
   1    5    9     4     2    9.9091E+00  1.8158E-01   9.7275E+00  0.000E+00  0.000E+00  0.000E+00  1.07154E+03  6.315E-01  1.000E+01  5.000E-02  1.211E+00
   1    6    8     4     3    9.7275E+00  1.2689E-01   9.6006E+00  0.000E+00  0.000E+00  0.000E+00  1.06381E+03  6.256E-01  1.000E+01  3.500E-02  1.209E+00
   1    6    8     5     1    1.0432E+01  2.2686E-01   1.0205E+01  0.000E+00  0.000E+00  0.000E+00  1.05868E+03  6.790E-01  1.542E+01  6.166E-02  1.226E+00
   1    7    7     5     2    1.0205E+01  2.7894E-01   9.9265E+00  0.000E+00  0.000E+00  0.000E+00  1.05417E+03  6.732E-01  1.519E+01  7.594E-02  1.224E+00
   1    8    7     5     3    9.9265E+00  1.9221E-01   9.7343E+00  0.000E+00  0.000E+00  0.000E+00  1.04992E+03  6.676E-01  1.497E+01  5.241E-02  1.223E+00
   1    8    6     5     4    9.7343E+00  1.3577E-01   9.5985E+00  0.000E+00  0.000E+00  0.000E+00  1.04691E+03  6.637E-01  1.482E+01  3.706E-02  1.221E+00
   1    9    6     6     1    2.6192E+01  2.5512E-01   2.5937E+01  0.000E+00  0.000E+00  0.000E+00  1.04398E+03  1.252E+00  1.200E+01  6.000E-02  1.417E+00
   1   10    7     6     2    2.5937E+01  2.5468E-01   2.5683E+01  0.000E+00  0.000E+00  0.000E+00  1.03943E+03  1.245E+00  1.200E+01  6.000E-02  1.415E+00
   1   11    7     6     3    2.5683E+01  2.5424E-01   2.5428E+01  0.000E+00  0.000E+00  0.000E+00  1.03487E+03  1.237E+00  1.200E+01  6.000E-02  1.412E+00
   1   12    7     6     4    2.5428E+01  2.5379E-01   2.5175E+01  0.000E+00  0.000E+00  0.000E+00  1.03032E+03  1.230E+00  1.200E+01  6.000E-02  1.410E+00
   1   13    7     6     5    2.5175E+01  8.8921E-05   2.5174E+01  0.000E+00  0.000E+00  0.000E+00  1.02714E+03  1.226E+00  1.200E+01  2.400E-02  1.235E-03
   1   14    9     7     1    1.5000E+02  1.3356E+00   1.4866E+02  0.000E+00  0.000E+00  0.000E+00  1.03987E+03  2.288E+00  5.529E+01  5.593E-01  7.960E-01
   1   13    8     7     2    1.4866E+02  1.8258E+00   1.4684E+02  0.000E+00  0.000E+00  0.000E+00  1.03478E+03  2.279E+00  5.526E+01  6.148E-01  9.899E-01
   1   13    7     7     3    1.4684E+02  1.4288E+00   1.4541E+02  0.000E+00  0.000E+00  0.000E+00  1.02969E+03  2.271E+00  5.522E+01  5.585E-01  8.528E-01
   1   13    6     8     1    1.7058E+02  8.6178E-01   1.6972E+02  0.000E+00  0.000E+00  0.000E+00  1.02483E+03  2.953E+00  4.282E+01  4.364E-01  6.583E-01
   1   13    5     8     2    1.6972E+02  1.0673E-01   1.6962E+02  0.000E+00  0.000E+00  0.000E+00  1.01858E+03  2.950E+00  4.278E+01  4.359E-01  8.161E-02
   1   13    4     8     3    1.6962E+02 -2.8183E+00   1.7243E+02  0.000E+00  0.000E+00  0.000E+00  1.01233E+03  2.959E+00  4.290E+01  4.372E+00 -2.149E-01
   1   13    3     8     4    1.7243E+02 -3.9340E+00   1.7637E+02  0.000E+00  0.000E+00  0.000E+00  1.00611E+03  2.981E+00  4.322E+01  4.404E+00 -2.977E-01
   1   13    2     8     5    1.7637E+02 -2.8456E+00   1.7921E+02  0.000E+00  0.000E+00  0.000E+00  9.99877E+02  3.002E+00  4.353E+01  4.436E+00 -2.138E-01
   1   13    1     8     6    1.7921E+02 -2.1684E+00   1.8138E+02  0.000E+00  0.000E+00  0.000E+00  9.94893E+02  3.018E+00  4.376E+01  2.676E+00 -2.701E-01
   1    8    6     9     1    0.0000E+00  0.0000E+00   0.0000E+00  0.000E+00  0.000E+00  0.000E+00  1.07875E+03  0.000E+00  4.000E+00  0.000E+00  1.000E+00
   1    8    5     9     2    0.0000E+00  0.0000E+00   0.0000E+00  0.000E+00  0.000E+00  0.000E+00  1.07825E+03  0.000E+00  4.000E+00  0.000E+00  1.000E+00



 UBDSV3 SAVING "           GW ET" ON UNIT  61 AT TIME STEP 10, STRESS PERIOD   5
 UBDSV3 SAVING "    UZF RECHARGE" ON UNIT  61 AT TIME STEP 10, STRESS PERIOD   5
 UBDSV3 SAVING " SURFACE LEAKAGE" ON UNIT  61 AT TIME STEP 10, STRESS PERIOD   5
 UBDSV3 SAVING "       HORT+DUNN" ON UNIT  61 AT TIME STEP 10, STRESS PERIOD   5
 UBDSV3 SAVING "  STORAGE CHANGE" ON UNIT  61 AT TIME STEP 10, STRESS PERIOD   5


UNSATURATED ZONE PACKAGE VOLUMETRIC BUDGET FOR  TIME STEP    10 STRESS PERIOD    5
  ------------------------------------------------------------------------------



     CUMULATIVE VOLUMES      L**3       RATES FOR THIS TIME STEP      L**3/T
     ------------------                 ------------------------

           IN:                                      IN:
           ---                                      ---
        INFILTRATION =    10764395.2241          INFILTRATION =           0.8475

          OUT:                                     OUT:
          ----                                     ----
              UZF ET =    10607267.6585                UZF ET =           4.5676
        UZF RECHARGE =       73224.0000          UZF RECHARGE =       0.0000E+00

            IN - OUT =       83903.5656              IN - OUT =          -3.7201

          STORAGE:                                 STORAGE:
          --------                                 --------
      STORAGE CHANGE =       83900.2869        STORAGE CHANGE =          -3.7201

 PERCENT DISCREPANCY IS DIFFERENCE BETWEEN IN-OUT MINUS CHANGE IN STORAGE
 DIVIDED BY THE AVERAGE OF IN AND OUT TIMES 100

 PERCENT DISCREPANCY =           0.00     PERCENT DISCREPANCY =           0.00






 

            AG WELLS      PERIOD    5   STEP  10
 AG WELL      1   LAYER   1   ROW     6   COL     4   RATE     0.00000    
 AG WELL      2   LAYER   1   ROW     6   COL     5   RATE     0.00000    
 AG WELL      3   LAYER   1   ROW     7   COL     4   RATE     0.00000    
 AG WELL      4   LAYER   1   ROW     7   COL     5   RATE     0.00000    
 AG WELL      5   LAYER   1   ROW     8   COL     4   RATE     0.00000    
 AG WELL      6   LAYER   1   ROW     8   COL     5   RATE     0.00000    
 
 

   DIVERSION SEGMENTS     PERIOD    5   STEP  10
 SEGMENT      9   RATE     0.00000    
 
 

        SW IRRIGATION     PERIOD    5   STEP  10
 SEGMENT      9   ROW     6   COL     4   RATE     0.00000    
 SEGMENT      9   ROW     6   COL     5   RATE     0.00000    
 SEGMENT      9   ROW     7   COL     4   RATE     0.00000    
 SEGMENT      9   ROW     7   COL     5   RATE     0.00000    
 SEGMENT      9   ROW     8   COL     4   RATE     0.00000    
 SEGMENT      9   ROW     8   COL     5   RATE     0.00000    
 
 

        GW IRRIGATION     PERIOD    5   STEP  10
 AG WELL      1   ROW     6   COL     4   RATE     0.00000    
 AG WELL      2   ROW     6   COL     5   RATE     0.00000    
 AG WELL      3   ROW     7   COL     4   RATE     0.00000    
 AG WELL      4   ROW     7   COL     5   RATE     0.00000    
 AG WELL      5   ROW     8   COL     4   RATE     0.00000    
 AG WELL      6   ROW     8   COL     5   RATE     0.00000    
 
1
  VOLUMETRIC BUDGET FOR AGRICULTURAL FIELDS AT  END OF TIME STEP   10, STRESS PERIOD   5
  ------------------------------------------------------------------------------

     CUMULATIVE VOLUMES      L**3       RATES FOR THIS TIME STEP      L**3/T
     ------------------                 ------------------------

           IN:                                      IN:
           ---                                      ---
               AG WELLS  =           0.0000                 AG WELLS  =           0.0000
      DIVERSION SEGMENTS =     3261356.5000        DIVERSION SEGMENTS =           0.0000
           GW IRRIGATION =           0.0000             GW IRRIGATION =           0.0000
           SW IRRIGATION =           0.0000             SW IRRIGATION =           0.0000
        SYSTEM LOSSES GW =           0.0000          SYSTEM LOSSES GW =           0.0000
        SYSTEM LOSSES SW =           0.0000          SYSTEM LOSSES SW =           0.0000

                TOTAL IN =     3261356.5000                  TOTAL IN =           0.0000

          OUT:                                     OUT:
          ----                                     ----
               AG WELLS  =           0.0000                 AG WELLS  =           0.0000
      DIVERSION SEGMENTS =           0.0000        DIVERSION SEGMENTS =           0.0000
           GW IRRIGATION =           0.0000             GW IRRIGATION =           0.0000
           SW IRRIGATION =     3261421.5000             SW IRRIGATION =           0.0000
        SYSTEM LOSSES GW =           0.0000          SYSTEM LOSSES GW =           0.0000
        SYSTEM LOSSES SW =           0.0000          SYSTEM LOSSES SW =           0.0000

               TOTAL OUT =     3261421.5000                 TOTAL OUT =           0.0000

                IN - OUT =         -65.0000                  IN - OUT =           0.0000

     PERCENT DISCREPANCY =          -0.00         PERCENT DISCREPANCY =           0.00



1
  VOLUMETRIC BUDGET FOR ENTIRE MODEL AT END OF TIME STEP   10, STRESS PERIOD   5
  ------------------------------------------------------------------------------

     CUMULATIVE VOLUMES      L**3       RATES FOR THIS TIME STEP      L**3/T
     ------------------                 ------------------------

           IN:                                      IN:
           ---                                      ---
             STORAGE     =     6457690.5000               STORAGE     =           1.4685
       CONSTANT HEAD     =           0.0000         CONSTANT HEAD     =           0.0000
     HEAD DEP BOUNDS     =     2529227.5000       HEAD DEP BOUNDS     =           0.2857
      STREAM LEAKAGE     =   105819168.0000        STREAM LEAKAGE     =          11.3842
        UZF RECHARGE     =       73223.9531          UZF RECHARGE     =           0.0000
               GW ET     =           0.0000                 GW ET     =           0.0000
     SURFACE LEAKAGE     =           0.0000       SURFACE LEAKAGE     =           0.0000
           AG WELLS      =           0.0000             AG WELLS      =           0.0000

                TOTAL IN =   114879312.0000                  TOTAL IN =          13.1385

          OUT:                                     OUT:
          ----                                     ----
             STORAGE     =    19052258.0000               STORAGE     =           1.0794
       CONSTANT HEAD     =           0.0000         CONSTANT HEAD     =           0.0000
     HEAD DEP BOUNDS     =     2573939.2500       HEAD DEP BOUNDS     =           0.2927
      STREAM LEAKAGE     =    93207848.0000        STREAM LEAKAGE     =          11.7662
        UZF RECHARGE     =           0.0000          UZF RECHARGE     =           0.0000
               GW ET     =       49031.1445                 GW ET     =           0.0000
     SURFACE LEAKAGE     =           0.0000       SURFACE LEAKAGE     =           0.0000
           AG WELLS      =           0.0000             AG WELLS      =           0.0000

               TOTAL OUT =   114883080.0000                 TOTAL OUT =          13.1384

                IN - OUT =       -3768.0000                  IN - OUT =       1.0967E-04

     PERCENT DISCREPANCY =          -0.00         PERCENT DISCREPANCY =           0.00






         TIME SUMMARY AT END OF TIME STEP   10 IN STRESS PERIOD    5
                    SECONDS     MINUTES      HOURS       DAYS        YEARS
                    -----------------------------------------------------------
   TIME STEP LENGTH  87667.      1461.1      24.352      1.0147     2.77799E-03
 STRESS PERIOD TIME 8.76667E+05  14611.      243.52      10.147     2.77799E-02
         TOTAL TIME 8.85306E+06 1.47551E+05  2459.2      102.47     0.28054    
1
 
 SOLVING FOR HEAD 
                                                   Max.-Head-Change                         Max.-Flux-Residual
  Residual-Control   Outer-Iter.   Inner-Iter.     Column Row Layer    Maximum-Head-Change  Column Row Layer    Maximum-Flux-Residual          L2-NORM 
          0                 1           2             2   13     1      -0.4772554603E-02       2   13    1        -0.2684656284E+00      0.5164222166E+00
          0                 2           2             4    7     1      -0.1155546898E-01       5    6    1        -0.6216181913E+00      0.1524425884E+01
          0                 3           2             4    7     1       0.1201685149E-01       5    6    1         0.6635098235E+00      0.1630912895E+01
          0                 4           2             4    7     1      -0.4782135150E-03       4    6    1        -0.2735278796E-01      0.6779484064E-01
          0                 5           1             4   13     1      -0.8188016552E-05       4   13    1        -0.4954835786E-03      0.1195691309E-02

    ------------------------------------------------
       NWT REQUIRED            5 OUTER ITERATIONS 
       AND A TOTAL OF          9 INNER ITERATIONS.
    ------------------------------------------------

 NO OUTPUT CONTROL FOR STRESS PERIOD    5   TIME STEP   11
 
 SOLVING FOR HEAD 
                                                   Max.-Head-Change                         Max.-Flux-Residual
  Residual-Control   Outer-Iter.   Inner-Iter.     Column Row Layer    Maximum-Head-Change  Column Row Layer    Maximum-Flux-Residual          L2-NORM 
          0                 1           2             2   13     1      -0.4218785867E-02       2   13    1        -0.2372608728E+00      0.4703606697E+00
          0                 2           2             2   13     1       0.3965707780E-03       2   13    1         0.2292594443E-01      0.4622660006E-01
          0                 3           1             2   13     1      -0.2568628035E-04       2   13    1        -0.1526238349E-02      0.3152490090E-02

    ------------------------------------------------
       NWT REQUIRED            3 OUTER ITERATIONS 
       AND A TOTAL OF          5 INNER ITERATIONS.
    ------------------------------------------------

 NO OUTPUT CONTROL FOR STRESS PERIOD    5   TIME STEP   12
 
 SOLVING FOR HEAD 
                                                   Max.-Head-Change                         Max.-Flux-Residual
  Residual-Control   Outer-Iter.   Inner-Iter.     Column Row Layer    Maximum-Head-Change  Column Row Layer    Maximum-Flux-Residual          L2-NORM 
          0                 1           2             2   13     1      -0.3905580496E-02       2   13    1        -0.2196146296E+00      0.4455212711E+00
          0                 2           2             4    7     1      -0.1155570419E-01       5    6    1        -0.6215371367E+00      0.1524907971E+01
          0                 3           2             4    7     1       0.1201687274E-01       5    6    1         0.6635040888E+00      0.1630887393E+01
          0                 4           2             4    7     1      -0.4782194577E-03       4    6    1        -0.2737524659E-01      0.6779708534E-01
          0                 5           1             4   13     1      -0.8165571879E-05       4   13    1        -0.4941176712E-03      0.1194032678E-02

    ------------------------------------------------
       NWT REQUIRED            5 OUTER ITERATIONS 
       AND A TOTAL OF          9 INNER ITERATIONS.
    ------------------------------------------------

 NO OUTPUT CONTROL FOR STRESS PERIOD    5   TIME STEP   13
 
 SOLVING FOR HEAD 
                                                   Max.-Head-Change                         Max.-Flux-Residual
  Residual-Control   Outer-Iter.   Inner-Iter.     Column Row Layer    Maximum-Head-Change  Column Row Layer    Maximum-Flux-Residual          L2-NORM 
          0                 1           2             2   13     1      -0.3416649177E-02       2   13    1        -0.1920681973E+00      0.4076399245E+00
          0                 2           2             2   13     1       0.3216276112E-03       2   13    1         0.1858542922E-01      0.4018716219E-01
          0                 3           1             2   13     1      -0.2089447566E-04       2   13    1        -0.1240970934E-02      0.2752145423E-02

    ------------------------------------------------
       NWT REQUIRED            3 OUTER ITERATIONS 
       AND A TOTAL OF          5 INNER ITERATIONS.
    ------------------------------------------------

 NO OUTPUT CONTROL FOR STRESS PERIOD    5   TIME STEP   14
 
 SOLVING FOR HEAD 
                                                   Max.-Head-Change                         Max.-Flux-Residual
  Residual-Control   Outer-Iter.   Inner-Iter.     Column Row Layer    Maximum-Head-Change  Column Row Layer    Maximum-Flux-Residual          L2-NORM 
          0                 1           2             2   13     1      -0.3163980462E-02       2   13    1        -0.1778369015E+00      0.3888896978E+00
          0                 2           2             4    7     1      -0.1155589289E-01       5    6    1        -0.6214666560E+00      0.1525350952E+01
          0                 3           2             4    7     1       0.1201689075E-01       5    6    1         0.6634990986E+00      0.1630867398E+01
          0                 4           2             4    7     1      -0.4782252088E-03       4    6    1        -0.2739741309E-01      0.6779890231E-01
          0                 5           1             4   13     1      -0.8135633539E-05       4   13    1        -0.4923818642E-03      0.1191559035E-02

    ------------------------------------------------
       NWT REQUIRED            5 OUTER ITERATIONS 
       AND A TOTAL OF          9 INNER ITERATIONS.
    ------------------------------------------------

 NO OUTPUT CONTROL FOR STRESS PERIOD    5   TIME STEP   15
 
 SOLVING FOR HEAD 
                                                   Max.-Head-Change                         Max.-Flux-Residual
  Residual-Control   Outer-Iter.   Inner-Iter.     Column Row Layer    Maximum-Head-Change  Column Row Layer    Maximum-Flux-Residual          L2-NORM 
          0                 1           2             1   13     1      -0.2851100936E-02       1   13    1        -0.1551378561E+00      0.3582439018E+00
          0                 2           2             1   13     1       0.2705380857E-03       1   13    1         0.1513421073E-01      0.3544334934E-01
          0                 3           1             1   13     1      -0.1777998227E-04       1   13    1        -0.1022514085E-02      0.2436355055E-02

    ------------------------------------------------
       NWT REQUIRED            3 OUTER ITERATIONS 
       AND A TOTAL OF          5 INNER ITERATIONS.
    ------------------------------------------------

 NO OUTPUT CONTROL FOR STRESS PERIOD    5   TIME STEP   16
 
 SOLVING FOR HEAD 
                                                   Max.-Head-Change                         Max.-Flux-Residual
  Residual-Control   Outer-Iter.   Inner-Iter.     Column Row Layer    Maximum-Head-Change  Column Row Layer    Maximum-Flux-Residual          L2-NORM 
          0                 1           2             1   13     1      -0.2723568111E-02       1   13    1        -0.1482262562E+00      0.3443866302E+00
          0                 2           2             4    7     1      -0.1155604055E-01       5    6    1        -0.6214026663E+00      0.1525747991E+01
          0                 3           2             4    7     1       0.1201690587E-01       5    6    1         0.6634945676E+00      0.1630850496E+01
          0                 4           2             4    7     1      -0.4782307701E-03       4    6    1        -0.2741923607E-01      0.6780295367E-01
          0                 5           1             4   13     1      -0.8133025044E-05       4   13    1        -0.4922243361E-03      0.1190711202E-02

    ------------------------------------------------
       NWT REQUIRED            5 OUTER ITERATIONS 
       AND A TOTAL OF          9 INNER ITERATIONS.
    ------------------------------------------------

 NO OUTPUT CONTROL FOR STRESS PERIOD    5   TIME STEP   17
 
 SOLVING FOR HEAD 
                                                   Max.-Head-Change                         Max.-Flux-Residual
  Residual-Control   Outer-Iter.   Inner-Iter.     Column Row Layer    Maximum-Head-Change  Column Row Layer    Maximum-Flux-Residual          L2-NORM 
          0                 1           2             1   13     1      -0.2544189627E-02       1   13    1        -0.1385414434E+00      0.3201504416E+00
          0                 2           2             1   13     1       0.2422947546E-03       1   13    1         0.1356443883E-01      0.3179598280E-01
          0                 3           1             1   13     1      -0.1599696879E-04       1   13    1        -0.9206706909E-03      0.2194950840E-02

    ------------------------------------------------
       NWT REQUIRED            3 OUTER ITERATIONS 
       AND A TOTAL OF          5 INNER ITERATIONS.
    ------------------------------------------------

 NO OUTPUT CONTROL FOR STRESS PERIOD    5   TIME STEP   18
 
 SOLVING FOR HEAD 
                                                   Max.-Head-Change                         Max.-Flux-Residual
  Residual-Control   Outer-Iter.   Inner-Iter.     Column Row Layer    Maximum-Head-Change  Column Row Layer    Maximum-Flux-Residual          L2-NORM 
          0                 1           2             1   13     1      -0.2427846425E-02       1   13    1        -0.1322269977E+00      0.3101224192E+00
          0                 2           2             4    7     1      -0.1155612763E-01       5    6    1        -0.6213461799E+00      0.1526101720E+01
          0                 3           2             4    7     1       0.1201691678E-01       5    6    1         0.6634905660E+00      0.1630838063E+01
          0                 4           2             4    7     1      -0.4782360830E-03       4    6    1        -0.2744070117E-01      0.6780697403E-01
          0                 5           1             4   13     1      -0.8111266487E-05       4   13    1        -0.4909237359E-03      0.1188036893E-02

    ------------------------------------------------
       NWT REQUIRED            5 OUTER ITERATIONS 
       AND A TOTAL OF          9 INNER ITERATIONS.
    ------------------------------------------------

 NO OUTPUT CONTROL FOR STRESS PERIOD    5   TIME STEP   19
 
 SOLVING FOR HEAD 
                                                   Max.-Head-Change                         Max.-Flux-Residual
  Residual-Control   Outer-Iter.   Inner-Iter.     Column Row Layer    Maximum-Head-Change  Column Row Layer    Maximum-Flux-Residual          L2-NORM 
          0                 1           2             1   13     1      -0.2259390845E-02       1   13    1        -0.1231261590E+00      0.2915423346E+00
          0                 2           2             1   13     1       0.2159674641E-03       1   13    1         0.1209969257E-01      0.2906383881E-01
          0                 3           1             1   13     1      -0.1432728394E-04       1   13    1        -0.8251947747E-03      0.2014831559E-02

    ------------------------------------------------
       NWT REQUIRED            3 OUTER ITERATIONS 
       AND A TOTAL OF          5 INNER ITERATIONS.
    ------------------------------------------------

 NO OUTPUT CONTROL FOR STRESS PERIOD    5   TIME STEP   20
 
 SOLVING FOR HEAD 
                                                   Max.-Head-Change                         Max.-Flux-Residual
  Residual-Control   Outer-Iter.   Inner-Iter.     Column Row Layer    Maximum-Head-Change  Column Row Layer    Maximum-Flux-Residual          L2-NORM 
          0                 1           2             1   13     1      -0.2153758393E-02       1   13    1        -0.1173848649E+00      0.2843906253E+00
          0                 2           2             4    7     1      -0.1155621309E-01       4    6    1        -0.6213422638E+00      0.1526412711E+01
          0                 3           2             4    7     1       0.1201692749E-01       5    6    1         0.6634869232E+00      0.1630826717E+01
          0                 4           2             4    7     1      -0.4782413066E-03       4    6    1        -0.2746179872E-01      0.6781134723E-01
          0                 5           1             4   13     1      -0.8095918344E-05       4   13    1        -0.4899658197E-03      0.1188715086E-02

    ------------------------------------------------
       NWT REQUIRED            5 OUTER ITERATIONS 
       AND A TOTAL OF          9 INNER ITERATIONS.
    ------------------------------------------------

 NO OUTPUT CONTROL FOR STRESS PERIOD    5   TIME STEP   21
 
 SOLVING FOR HEAD 
                                                   Max.-Head-Change                         Max.-Flux-Residual
  Residual-Control   Outer-Iter.   Inner-Iter.     Column Row Layer    Maximum-Head-Change  Column Row Layer    Maximum-Flux-Residual          L2-NORM 
          0                 1           2             1    1     1       0.2137051518E-02       1    1    1         0.1109475269E+00      0.2707256301E+00
          0                 2           2             1    1     1      -0.2078769878E-03       1    1    1        -0.1109476264E-01      0.2707930992E-01
          0                 3           1             1    1     1       0.1415565085E-04       1    1    1         0.7766336257E-03      0.1884615747E-02

    ------------------------------------------------
       NWT REQUIRED            3 OUTER ITERATIONS 
       AND A TOTAL OF          5 INNER ITERATIONS.
    ------------------------------------------------

 NO OUTPUT CONTROL FOR STRESS PERIOD    5   TIME STEP   22
 
 SOLVING FOR HEAD 
                                                   Max.-Head-Change                         Max.-Flux-Residual
  Residual-Control   Outer-Iter.   Inner-Iter.     Column Row Layer    Maximum-Head-Change  Column Row Layer    Maximum-Flux-Residual          L2-NORM 
          0                 1           2             1    1     1       0.2134653354E-02       1    1    1         0.1108227797E+00      0.2656256097E+00
          0                 2           2             4    7     1      -0.1155627277E-01       4    6    1        -0.6213463428E+00      0.1526686398E+01
          0                 3           2             4    7     1       0.1201693635E-01       5    6    1         0.6634838427E+00      0.1630817920E+01
          0                 4           2             4    7     1      -0.4782463678E-03       4    6    1        -0.2748249737E-01      0.6781571925E-01
          0                 5           1             4   13     1      -0.8097252116E-05       4   13    1        -0.4900596132E-03      0.1187903136E-02

    ------------------------------------------------
       NWT REQUIRED            5 OUTER ITERATIONS 
       AND A TOTAL OF          9 INNER ITERATIONS.
    ------------------------------------------------

 NO OUTPUT CONTROL FOR STRESS PERIOD    5   TIME STEP   23
 
 SOLVING FOR HEAD 
                                                   Max.-Head-Change                         Max.-Flux-Residual
  Residual-Control   Outer-Iter.   Inner-Iter.     Column Row Layer    Maximum-Head-Change  Column Row Layer    Maximum-Flux-Residual          L2-NORM 
          0                 1           2             1    1     1       0.2132263794E-02       1    1    1         0.1106984787E+00      0.2561401723E+00
          0                 2           2             1    1     1      -0.2074112716E-03       1    1    1        -0.1106985774E-01      0.2568979366E-01
          0                 3           1             1    1     1       0.1412393711E-04       1    1    1         0.7748902811E-03      0.1792795482E-02

    ------------------------------------------------
       NWT REQUIRED            3 OUTER ITERATIONS 
       AND A TOTAL OF          5 INNER ITERATIONS.
    ------------------------------------------------

 NO OUTPUT CONTROL FOR STRESS PERIOD    5   TIME STEP   24
 
 SOLVING FOR HEAD 
                                                   Max.-Head-Change                         Max.-Flux-Residual
  Residual-Control   Outer-Iter.   Inner-Iter.     Column Row Layer    Maximum-Head-Change  Column Row Layer    Maximum-Flux-Residual          L2-NORM 
          0                 1           2             1    1     1       0.2129881216E-02       1    1    1         0.1105745420E+00      0.2523880997E+00
          0                 2           2             4    7     1      -0.1155630987E-01       4    6    1        -0.6213481495E+00      0.1526924945E+01
          0                 3           2             4    7     1       0.1201694357E-01       5    6    1         0.6634811467E+00      0.1630811605E+01
          0                 4           2             4    7     1      -0.4782512723E-03       4    6    1        -0.2750278657E-01      0.6782219147E-01
          0                 5           1             4   13     1      -0.8062058682E-05       4   13    1        -0.4879163907E-03      0.1186386643E-02

    ------------------------------------------------
       NWT REQUIRED            5 OUTER ITERATIONS 
       AND A TOTAL OF          9 INNER ITERATIONS.
    ------------------------------------------------

 NO OUTPUT CONTROL FOR STRESS PERIOD    5   TIME STEP   25
 
 SOLVING FOR HEAD 
                                                   Max.-Head-Change                         Max.-Flux-Residual
  Residual-Control   Outer-Iter.   Inner-Iter.     Column Row Layer    Maximum-Head-Change  Column Row Layer    Maximum-Flux-Residual          L2-NORM 
          0                 1           2             1    1     1       0.2127507188E-02       1    1    1         0.1104510489E+00      0.2463724464E+00
          0                 2           2             1    1     1      -0.2069485823E-03       1    1    1        -0.1104511467E-01      0.2475698240E-01
          0                 3           1             1    1     1       0.1409242951E-04       1    1    1         0.7731582609E-03      0.1730796475E-02

    ------------------------------------------------
       NWT REQUIRED            3 OUTER ITERATIONS 
       AND A TOTAL OF          5 INNER ITERATIONS.
    ------------------------------------------------

 NO OUTPUT CONTROL FOR STRESS PERIOD    5   TIME STEP   26
 
 SOLVING FOR HEAD 
                                                   Max.-Head-Change                         Max.-Flux-Residual
  Residual-Control   Outer-Iter.   Inner-Iter.     Column Row Layer    Maximum-Head-Change  Column Row Layer    Maximum-Flux-Residual          L2-NORM 
          0                 1           2             1    1     1       0.2125118185E-02       1    1    1         0.1103267796E+00      0.2434069721E+00
          0                 2           2             4    7     1      -0.1155632873E-01       4    6    1        -0.6213479770E+00      0.1527131955E+01
          0                 3           2             4    7     1       0.1201694946E-01       4    6    1         0.6634883421E+00      0.1630916424E+01
          0                 4           2             4    7     1      -0.4782560298E-03       4    6    1        -0.2752265928E-01      0.6765061439E-01
          0                 5           1             2   13     1      -0.7387298569E-05       2   13    1        -0.4386544042E-03      0.1105109275E-02

    ------------------------------------------------
       NWT REQUIRED            5 OUTER ITERATIONS 
       AND A TOTAL OF          9 INNER ITERATIONS.
    ------------------------------------------------

 NO OUTPUT CONTROL FOR STRESS PERIOD    5   TIME STEP   27
 
 SOLVING FOR HEAD 
                                                   Max.-Head-Change                         Max.-Flux-Residual
  Residual-Control   Outer-Iter.   Inner-Iter.     Column Row Layer    Maximum-Head-Change  Column Row Layer    Maximum-Flux-Residual          L2-NORM 
          0                 1           2             1    1     1       0.2122759633E-02       1    1    1         0.1102040913E+00      0.2402022557E+00
          0                 2           2             1    1     1      -0.2064867734E-03       1    1    1        -0.1102041883E-01      0.2416448996E-01
          0                 3           1             1    1     1       0.1406098226E-04       1    1    1         0.7714295551E-03      0.1690964953E-02

    ------------------------------------------------
       NWT REQUIRED            3 OUTER ITERATIONS 
       AND A TOTAL OF          5 INNER ITERATIONS.
    ------------------------------------------------

 NO OUTPUT CONTROL FOR STRESS PERIOD    5   TIME STEP   28
 
 SOLVING FOR HEAD 
                                                   Max.-Head-Change                         Max.-Flux-Residual
  Residual-Control   Outer-Iter.   Inner-Iter.     Column Row Layer    Maximum-Head-Change  Column Row Layer    Maximum-Flux-Residual          L2-NORM 
          0                 1           2             4   13     1       0.4581999336E-02       4   13    1         0.2638927665E+00      0.5253232366E+00
          0                 2           2             4    7     1      -0.1155634047E-01       4    6    1        -0.6213446379E+00      0.1532145829E+01
          0                 3           2             4    7     1       0.1201685978E-01       4    6    1         0.6634931711E+00      0.1630450322E+01
          0                 4           2             4    7     1      -0.4781644856E-03       5    6    1        -0.2713642582E-01      0.6705990059E-01
          0                 5           1             4    7     1       0.5895971902E-05       5    6    1         0.3439020691E-03      0.9108478015E-03

    ------------------------------------------------
       NWT REQUIRED            5 OUTER ITERATIONS 
       AND A TOTAL OF          9 INNER ITERATIONS.
    ------------------------------------------------

 NO OUTPUT CONTROL FOR STRESS PERIOD    5   TIME STEP   29
 
 SOLVING FOR HEAD 
                                                   Max.-Head-Change                         Max.-Flux-Residual
  Residual-Control   Outer-Iter.   Inner-Iter.     Column Row Layer    Maximum-Head-Change  Column Row Layer    Maximum-Flux-Residual          L2-NORM 
          0                 1           2             4   13     1       0.2067205332E-01       4   13    1         0.1193867308E+01      0.2147091933E+01
          0                 2           2             4   13     1      -0.1989137928E-02       4   13    1        -0.1181188792E+00      0.2086325972E+00
          0                 3           2             4   13     1       0.1334291288E-03       4   13    1         0.8146616486E-02      0.1403842217E-01
          0                 4           1             4   13     1      -0.5173290267E-05       4   13    1        -0.3247849972E-03      0.5375877865E-03

    ------------------------------------------------
       NWT REQUIRED            4 OUTER ITERATIONS 
       AND A TOTAL OF          7 INNER ITERATIONS.
    ------------------------------------------------

 NO OUTPUT CONTROL FOR STRESS PERIOD    5   TIME STEP   30



 STREAM LISTING     PERIOD      5   STEP       30

 LAYER ROW COL. STREAM  RCH.  FLOW INTO     FLOW TO   FLOW OUT OF   OVRLND.     DIRECT     STREAM       STREAM     STREAM     STREAM   STREAMBED  STREAMBED
                SEG.NO.  NO.  STRM. RCH.    AQUIFER    STRM. RCH.    RUNOFF     PRECIP       ET          HEAD       DEPTH      WIDTH   CONDCTNC.   GRADIENT

   1    1    1     1     1    7.4250E+01  4.1989E-01   7.3830E+01  0.000E+00  0.000E+00  0.000E+00  1.09474E+03  1.690E+00  1.990E+01  8.954E-02  1.563E+00
   1    2    2     1     2    7.3830E+01  6.5045E-01   7.3180E+01  0.000E+00  0.000E+00  0.000E+00  1.08974E+03  1.684E+00  1.984E+01  1.389E-01  1.561E+00
   1    3    3     1     3    7.3180E+01  5.5490E-01   7.2625E+01  0.000E+00  0.000E+00  0.000E+00  1.08410E+03  1.677E+00  1.977E+01  1.186E-01  1.559E+00
   1    3    4     1     4    7.2625E+01  5.1113E-01   7.2114E+01  0.000E+00  0.000E+00  0.000E+00  1.07908E+03  1.671E+00  1.972E+01  1.094E-01  1.557E+00
   1    4    5     2     1    7.0114E+01  4.0857E-01   6.9705E+01  0.000E+00  0.000E+00  0.000E+00  1.07417E+03  2.238E+00  1.200E+01  7.800E-02  1.746E+00
   1    5    6     2     2    6.9705E+01  3.1387E-01   6.9391E+01  0.000E+00  0.000E+00  0.000E+00  1.06874E+03  2.231E+00  1.200E+01  6.000E-02  1.744E+00
   1    6    6     2     3    6.9391E+01  3.1350E-01   6.9078E+01  0.000E+00  0.000E+00  0.000E+00  1.06402E+03  2.225E+00  1.200E+01  6.000E-02  1.742E+00
   1    7    6     2     4    6.9078E+01  3.1314E-01   6.8765E+01  0.000E+00  0.000E+00  0.000E+00  1.05929E+03  2.219E+00  1.200E+01  6.000E-02  1.740E+00
   1    8    6     2     5    6.8765E+01  3.1278E-01   6.8452E+01  0.000E+00  0.000E+00  0.000E+00  1.05457E+03  2.213E+00  1.200E+01  6.000E-02  1.738E+00
   1    3    5     3     1    2.0000E+00  2.8252E-01   1.7175E+00  0.000E+00  0.000E+00  0.000E+00  1.07555E+03  1.909E+00  9.636E+00  7.227E-02  1.955E+00
   1    3    6     3     2    1.7175E+00  2.4905E-01   1.4684E+00  0.000E+00  0.000E+00  0.000E+00  1.07264E+03  1.727E+00  8.909E+00  6.682E-02  1.864E+00
   1    3    7     3     3    1.4684E+00  1.9718E-01   1.2712E+00  0.000E+00  0.000E+00  0.000E+00  1.06987E+03  1.555E+00  8.218E+00  5.547E-02  1.777E+00
   1    4    8     3     4    1.2712E+00  2.2567E-01   1.0456E+00  0.000E+00  0.000E+00  0.000E+00  1.06682E+03  1.364E+00  7.455E+00  6.709E-02  1.682E+00
   1    5    8     3     5    1.0456E+00  1.5790E-01   8.8768E-01  0.000E+00  0.000E+00  0.000E+00  1.06362E+03  1.164E+00  6.655E+00  4.991E-02  1.582E+00
   1    6    8     3     6    8.8768E-01  5.5980E-02   8.3170E-01  0.000E+00  0.000E+00  0.000E+00  1.06158E+03  1.036E+00  6.145E+00  1.844E-02  1.518E+00
   1    5   10     4     1    1.0000E+01  9.0919E-02   9.9091E+00  0.000E+00  0.000E+00  0.000E+00  1.07836E+03  6.368E-01  1.000E+01  2.500E-02  1.212E+00
   1    5    9     4     2    9.9091E+00  1.8158E-01   9.7275E+00  0.000E+00  0.000E+00  0.000E+00  1.07154E+03  6.315E-01  1.000E+01  5.000E-02  1.211E+00
   1    6    8     4     3    9.7275E+00  1.2689E-01   9.6006E+00  0.000E+00  0.000E+00  0.000E+00  1.06381E+03  6.256E-01  1.000E+01  3.500E-02  1.209E+00
   1    6    8     5     1    1.0432E+01  2.2686E-01   1.0205E+01  0.000E+00  0.000E+00  0.000E+00  1.05868E+03  6.790E-01  1.542E+01  6.166E-02  1.226E+00
   1    7    7     5     2    1.0205E+01  2.7894E-01   9.9265E+00  0.000E+00  0.000E+00  0.000E+00  1.05417E+03  6.732E-01  1.519E+01  7.594E-02  1.224E+00
   1    8    7     5     3    9.9265E+00  1.9221E-01   9.7343E+00  0.000E+00  0.000E+00  0.000E+00  1.04992E+03  6.676E-01  1.497E+01  5.241E-02  1.223E+00
   1    8    6     5     4    9.7343E+00  1.3577E-01   9.5985E+00  0.000E+00  0.000E+00  0.000E+00  1.04691E+03  6.637E-01  1.482E+01  3.706E-02  1.221E+00
   1    9    6     6     1    7.8051E+01  3.2488E-01   7.7726E+01  0.000E+00  0.000E+00  0.000E+00  1.04514E+03  2.415E+00  1.200E+01  6.000E-02  1.805E+00
   1   10    7     6     2    7.7726E+01  3.2452E-01   7.7401E+01  0.000E+00  0.000E+00  0.000E+00  1.04059E+03  2.409E+00  1.200E+01  6.000E-02  1.803E+00
   1   11    7     6     3    7.7401E+01  3.2415E-01   7.7077E+01  0.000E+00  0.000E+00  0.000E+00  1.03604E+03  2.403E+00  1.200E+01  6.000E-02  1.801E+00
   1   12    7     6     4    7.7077E+01  3.2379E-01   7.6753E+01  0.000E+00  0.000E+00  0.000E+00  1.03149E+03  2.397E+00  1.200E+01  6.000E-02  1.799E+00
   1   13    7     6     5    7.6753E+01  2.8123E-02   7.6725E+01  0.000E+00  0.000E+00  0.000E+00  1.02830E+03  2.393E+00  1.200E+01  2.400E-02  3.906E-01
   1   14    9     7     1    1.5000E+02  1.3357E+00   1.4866E+02  0.000E+00  0.000E+00  0.000E+00  1.03987E+03  2.288E+00  5.529E+01  5.593E-01  7.961E-01
   1   13    8     7     2    1.4866E+02  1.8242E+00   1.4684E+02  0.000E+00  0.000E+00  0.000E+00  1.03478E+03  2.279E+00  5.526E+01  6.148E-01  9.891E-01
   1   13    7     7     3    1.4684E+02  1.4294E+00   1.4541E+02  0.000E+00  0.000E+00  0.000E+00  1.02969E+03  2.271E+00  5.522E+01  5.585E-01  8.532E-01
   1   13    6     8     1    2.2214E+02  1.1052E+00   2.2103E+02  0.000E+00  0.000E+00  0.000E+00  1.02514E+03  3.261E+00  4.728E+01  4.818E-01  7.646E-01
   1   13    5     8     2    2.2103E+02  2.7383E-01   2.2076E+02  0.000E+00  0.000E+00  0.000E+00  1.01888E+03  3.257E+00  4.722E+01  4.812E-01  1.897E-01
   1   13    4     8     3    2.2076E+02 -1.5486E+00   2.2231E+02  0.000E+00  0.000E+00  0.000E+00  1.01264E+03  3.260E+00  4.728E+01  4.818E+00 -1.071E-01
   1   13    3     8     4    2.2231E+02 -2.7796E+00   2.2508E+02  0.000E+00  0.000E+00  0.000E+00  1.00640E+03  3.272E+00  4.745E+01  4.835E+00 -1.916E-01
   1   13    2     8     5    2.2508E+02 -1.5631E+00   2.2665E+02  0.000E+00  0.000E+00  0.000E+00  1.00016E+03  3.284E+00  4.762E+01  4.853E+00 -1.074E-01
   1   13    1     8     6    2.2665E+02 -1.4382E+00   2.2809E+02  0.000E+00  0.000E+00  0.000E+00  9.95167E+02  3.292E+00  4.774E+01  2.919E+00 -1.642E-01
   1    8    6     9     1    0.0000E+00  0.0000E+00   0.0000E+00  0.000E+00  0.000E+00  0.000E+00  1.07875E+03  0.000E+00  4.000E+00  0.000E+00  1.000E+00
   1    8    5     9     2    0.0000E+00  0.0000E+00   0.0000E+00  0.000E+00  0.000E+00  0.000E+00  1.07825E+03  0.000E+00  4.000E+00  0.000E+00  1.000E+00





UNSATURATED ZONE PACKAGE VOLUMETRIC BUDGET FOR  TIME STEP    30 STRESS PERIOD    5
  ------------------------------------------------------------------------------



     CUMULATIVE VOLUMES      L**3       RATES FOR THIS TIME STEP      L**3/T
     ------------------                 ------------------------

           IN:                                      IN:
           ---                                      ---
        INFILTRATION =    18772875.4530          INFILTRATION =           0.8475

          OUT:                                     OUT:
          ----                                     ----
              UZF ET =    18615741.2480                UZF ET =           4.5676
        UZF RECHARGE =       73224.0000          UZF RECHARGE =       0.0000E+00

            IN - OUT =       83910.2050              IN - OUT =          -3.7201

          STORAGE:                                 STORAGE:
          --------                                 --------
      STORAGE CHANGE =       83900.2869        STORAGE CHANGE =          -3.7201

 PERCENT DISCREPANCY IS DIFFERENCE BETWEEN IN-OUT MINUS CHANGE IN STORAGE
 DIVIDED BY THE AVERAGE OF IN AND OUT TIMES 100

 PERCENT DISCREPANCY =           0.00     PERCENT DISCREPANCY =           0.00






1
  VOLUMETRIC BUDGET FOR AGRICULTURAL FIELDS AT  END OF TIME STEP   30, STRESS PERIOD   5
  ------------------------------------------------------------------------------

     CUMULATIVE VOLUMES      L**3       RATES FOR THIS TIME STEP      L**3/T
     ------------------                 ------------------------

           IN:                                      IN:
           ---                                      ---
               AG WELLS  =           0.0000                 AG WELLS  =           0.0000
      DIVERSION SEGMENTS =     9783756.0000        DIVERSION SEGMENTS =           0.0000
           GW IRRIGATION =           0.0000             GW IRRIGATION =           0.0000
           SW IRRIGATION =           0.0000             SW IRRIGATION =           0.0000
        SYSTEM LOSSES GW =           0.0000          SYSTEM LOSSES GW =           0.0000
        SYSTEM LOSSES SW =           0.0000          SYSTEM LOSSES SW =           0.0000

                TOTAL IN =     9783756.0000                  TOTAL IN =           0.0000

          OUT:                                     OUT:
          ----                                     ----
               AG WELLS  =           0.0000                 AG WELLS  =           0.0000
      DIVERSION SEGMENTS =           0.0000        DIVERSION SEGMENTS =           0.0000
           GW IRRIGATION =           0.0000             GW IRRIGATION =           0.0000
           SW IRRIGATION =     9783952.0000             SW IRRIGATION =           0.0000
        SYSTEM LOSSES GW =           0.0000          SYSTEM LOSSES GW =           0.0000
        SYSTEM LOSSES SW =           0.0000          SYSTEM LOSSES SW =           0.0000

               TOTAL OUT =     9783952.0000                 TOTAL OUT =           0.0000

                IN - OUT =        -196.0000                  IN - OUT =           0.0000

     PERCENT DISCREPANCY =          -0.00         PERCENT DISCREPANCY =           0.00



1
  VOLUMETRIC BUDGET FOR ENTIRE MODEL AT END OF TIME STEP   30, STRESS PERIOD   5
  ------------------------------------------------------------------------------

     CUMULATIVE VOLUMES      L**3       RATES FOR THIS TIME STEP      L**3/T
     ------------------                 ------------------------

           IN:                                      IN:
           ---                                      ---
             STORAGE     =     8454645.0000               STORAGE     =           0.3976
       CONSTANT HEAD     =           0.0000         CONSTANT HEAD     =           0.0000
     HEAD DEP BOUNDS     =     3030241.0000       HEAD DEP BOUNDS     =           0.2858
      STREAM LEAKAGE     =   125927528.0000        STREAM LEAKAGE     =          13.4935
        UZF RECHARGE     =       73223.9531          UZF RECHARGE     =           0.0000
               GW ET     =           0.0000                 GW ET     =           0.0000
     SURFACE LEAKAGE     =           0.0000       SURFACE LEAKAGE     =           0.0000
           AG WELLS      =           0.0000             AG WELLS      =           0.0000

                TOTAL IN =   137485632.0000                  TOTAL IN =          14.1768

          OUT:                                     OUT:
          ----                                     ----
             STORAGE     =    21284910.0000               STORAGE     =           6.5563
       CONSTANT HEAD     =           0.0000         CONSTANT HEAD     =           0.0000
     HEAD DEP BOUNDS     =     3084990.7500       HEAD DEP BOUNDS     =           0.2911
      STREAM LEAKAGE     =   113070416.0000        STREAM LEAKAGE     =           7.3294
        UZF RECHARGE     =           0.0000          UZF RECHARGE     =           0.0000
               GW ET     =       49031.1445                 GW ET     =           0.0000
     SURFACE LEAKAGE     =           0.0000       SURFACE LEAKAGE     =           0.0000
           AG WELLS      =           0.0000             AG WELLS      =           0.0000

               TOTAL OUT =   137489344.0000                 TOTAL OUT =          14.1768

                IN - OUT =       -3712.0000                  IN - OUT =       2.5749E-05

     PERCENT DISCREPANCY =          -0.00         PERCENT DISCREPANCY =           0.00






         TIME SUMMARY AT END OF TIME STEP   30 IN STRESS PERIOD    5
                    SECONDS     MINUTES      HOURS       DAYS        YEARS
                    -----------------------------------------------------------
   TIME STEP LENGTH  87667.      1461.1      24.352      1.0147     2.77799E-03
 STRESS PERIOD TIME 2.63000E+06  43833.      730.56      30.440     8.33397E-02
         TOTAL TIME 1.06064E+07 1.76773E+05  2946.2      122.76     0.33610    
1
1
                            STRESS PERIOD NO.    6, LENGTH =   2630000.    
                            -----------------------------------------------

                              NUMBER OF TIME STEPS =    30

                               MULTIPLIER FOR DELT =     1.000

                            INITIAL TIME STEP SIZE =   87666.66    

 REUSING NON-PARAMETER GHB CELLS FROM LAST STRESS PERIOD

      2 GHB CELLS

 REUSING STREAM SEGMENT DATA FROM LAST STRESS PERIOD



            AREAL INFILTRATION RATE
 READING ON UNIT   19 WITH FORMAT: (FREE)              

            1           2           3           4           5           6           7           8           9          10
 ........................................................................................................................
   1   1.0000E-10  2.0000E-10   0.000       0.000       0.000       0.000       0.000       0.000       0.000       0.000    
   2   2.0000E-10  1.0000E-10  2.0000E-10   0.000       0.000      8.0000E-10  8.0000E-10  5.0000E-10   0.000       0.000    
   3    0.000      5.0000E-10  1.0000E-10  1.0000E-10  8.0000E-10  8.0000E-10  5.0000E-10  5.0000E-10   0.000       0.000    
   4   8.0000E-10  5.0000E-10  1.0000E-10  1.0000E-10  1.0000E-10  1.0000E-10  1.0000E-10  1.0000E-10  2.0000E-10   0.000    
   5   8.0000E-10  5.0000E-10  1.0000E-10  1.0000E-10  1.0000E-10  1.0000E-10  1.0000E-10  1.0000E-10  1.0000E-10  1.0000E-10
   6   8.0000E-10  5.0000E-10  5.0000E-10  2.0000E-10  2.0000E-10  1.0000E-10  1.0000E-10  1.0000E-10  1.0000E-10  5.0000E-10
   7   8.0000E-10  5.0000E-10  5.0000E-10  2.0000E-10  2.0000E-10  1.0000E-10  1.0000E-10  2.0000E-10  2.0000E-10   0.000    
   8    0.000      5.0000E-10  5.0000E-10  2.0000E-10  2.0000E-10  1.0000E-10  1.0000E-10  2.0000E-10  5.0000E-10   0.000    
   9    0.000      5.0000E-10  5.0000E-10  2.0000E-10  2.0000E-10  1.0000E-10  1.0000E-10  2.0000E-10  5.0000E-10   0.000    
  10    0.000      5.0000E-10  5.0000E-10  2.0000E-10  2.0000E-10  1.0000E-10  1.0000E-10  2.0000E-10  5.0000E-10  8.0000E-10
  11    0.000      1.0000E-10  1.0000E-10  1.0000E-10  1.0000E-10  1.0000E-10  1.0000E-10  2.0000E-10  5.0000E-10   0.000    
  12   1.0000E-10  1.0000E-10  1.0000E-10  1.0000E-10  1.0000E-10  1.0000E-10  1.0000E-10  1.0000E-10  2.0000E-10   0.000    
  13   1.0000E-10  1.0000E-10  2.0000E-10  2.0000E-10  2.0000E-10  2.0000E-10  2.0000E-10  1.0000E-10  1.0000E-10   0.000    
  14    0.000      2.0000E-10  5.0000E-10  5.0000E-10  5.0000E-10  5.0000E-10  5.0000E-10  2.0000E-10  1.0000E-10   0.000    
  15    0.000       0.000      8.0000E-10  8.0000E-10  8.0000E-10  8.0000E-10   0.000       0.000       0.000       0.000    

                  ET RATE =  5.000000E-08

 USING ET EXTINCTION DEPTH FROM PREVIOUS STRESS PERIOD. CURRENT PERIOD IS:       6

 USING EXTINCTION WATER CONTENT FROM PREVIOUS STRESS PERIOD. CURRENT PERIOD IS:       6

 USING AIR ENTRY PRESSURE FROM PREVIOUS STRESS PERIOD. CURRENT PERIOD IS:       6

 USING ROOT PRESSURE HEAD FROM PREVIOUS STRESS PERIOD. CURRENT PERIOD IS:       6

 USING ROOT ACTIVITY FROM PREVIOUS STRESS PERIOD. CURRENT PERIOD IS:       6

 PROCESSING AG STRESS PERIOD DATA

 READING AG STRESS PERIOD DATA

 READING IRRIGATION SEGMENT

 READING IRRIGATION WELL

 READING SUPPLEMENTAL WELL

 END PROCESSING AG STRESS PERIOD DATA OPTIONS
 
 SOLVING FOR HEAD 
                                                   Max.-Head-Change                         Max.-Flux-Residual
  Residual-Control   Outer-Iter.   Inner-Iter.     Column Row Layer    Maximum-Head-Change  Column Row Layer    Maximum-Flux-Residual          L2-NORM 
          0                 1           2             4   13     1       0.1861652191E-01       4   13    1         0.1074561988E+01      0.1985737700E+01
          0                 2           2             4    7     1      -0.2319339885E-01       4    6    1        -0.1246344316E+01      0.3090376856E+01
          0                 3           2             4    7     1       0.2412988417E-01       5    6    1         0.1332238038E+01      0.3274056363E+01
          0                 4           2             4    7     1      -0.9602570002E-03       4    6    1        -0.5491221796E-01      0.1348405214E+00
          0                 5           1             4    7     1       0.1184036961E-04       4    6    1         0.6958966021E-03      0.1826198932E-02

    ------------------------------------------------
       NWT REQUIRED            5 OUTER ITERATIONS 
       AND A TOTAL OF          9 INNER ITERATIONS.
    ------------------------------------------------

 NO OUTPUT CONTROL FOR STRESS PERIOD    6   TIME STEP    1
 
 SOLVING FOR HEAD 
                                                   Max.-Head-Change                         Max.-Flux-Residual
  Residual-Control   Outer-Iter.   Inner-Iter.     Column Row Layer    Maximum-Head-Change  Column Row Layer    Maximum-Flux-Residual          L2-NORM 
          0                 1           2             4   13     1       0.1736669089E-01       4   13    1         0.1002034862E+01      0.1886948588E+01
          0                 2           2             4   13     1      -0.1671242338E-02       4   13    1        -0.9914770547E-01      0.1835715227E+00
          0                 3           1             4   13     1       0.1119023586E-03       4   13    1         0.6825743972E-02      0.1235542154E-01
          0                 4           1             4   13     1      -0.4359025907E-05       4   13    1        -0.2734040781E-03      0.4760020474E-03

    ------------------------------------------------
       NWT REQUIRED            4 OUTER ITERATIONS 
       AND A TOTAL OF          6 INNER ITERATIONS.
    ------------------------------------------------

 NO OUTPUT CONTROL FOR STRESS PERIOD    6   TIME STEP    2
 
 SOLVING FOR HEAD 
                                                   Max.-Head-Change                         Max.-Flux-Residual
  Residual-Control   Outer-Iter.   Inner-Iter.     Column Row Layer    Maximum-Head-Change  Column Row Layer    Maximum-Flux-Residual          L2-NORM 
          0                 1           2             2   13     1       0.1573588727E-01       4   13    1         0.9027527337E+00      0.1752077029E+01
          0                 2           2             4    7     1      -0.2319359710E-01       5    6    1        -0.1246437037E+01      0.3088900696E+01
          0                 3           2             4    7     1       0.2412990201E-01       5    6    1         0.1332250475E+01      0.3273951905E+01
          0                 4           2             4    7     1      -0.9602619817E-03       4    6    1        -0.5493100650E-01      0.1348374794E+00
          0                 5           1             4    7     1       0.1184043122E-04       4    6    1         0.6961399129E-03      0.1825693542E-02

    ------------------------------------------------
       NWT REQUIRED            5 OUTER ITERATIONS 
       AND A TOTAL OF          9 INNER ITERATIONS.
    ------------------------------------------------

 NO OUTPUT CONTROL FOR STRESS PERIOD    6   TIME STEP    3
 
 SOLVING FOR HEAD 
                                                   Max.-Head-Change                         Max.-Flux-Residual
  Residual-Control   Outer-Iter.   Inner-Iter.     Column Row Layer    Maximum-Head-Change  Column Row Layer    Maximum-Flux-Residual          L2-NORM 
          0                 1           2             2   13     1       0.1493529405E-01       4   13    1         0.8476991993E+00      0.1669913889E+01
          0                 2           2             4   13     1      -0.1667000315E-02       4   13    1        -0.1028926948E+00      0.1732694274E+00
          0                 3           1             4   13     1       0.1118661485E-03       4   13    1         0.7099140594E-02      0.1170526058E-01
          0                 4           1             4   13     1      -0.4326973807E-05       4   13    1        -0.2823359955E-03      0.4500764126E-03

    ------------------------------------------------
       NWT REQUIRED            4 OUTER ITERATIONS 
       AND A TOTAL OF          6 INNER ITERATIONS.
    ------------------------------------------------

 NO OUTPUT CONTROL FOR STRESS PERIOD    6   TIME STEP    4
 
 SOLVING FOR HEAD 
                                                   Max.-Head-Change                         Max.-Flux-Residual
  Residual-Control   Outer-Iter.   Inner-Iter.     Column Row Layer    Maximum-Head-Change  Column Row Layer    Maximum-Flux-Residual          L2-NORM 
          0                 1           2             2   13     1       0.1373839432E-01       2   13    1         0.7783976430E+00      0.1538420853E+01
          0                 2           2             4    7     1      -0.2319387868E-01       5    6    1        -0.1246598869E+01      0.3083323315E+01
          0                 3           2             4    7     1       0.2412992550E-01       5    6    1         0.1332261803E+01      0.3274027529E+01
          0                 4           2             4    7     1      -0.9602671413E-03       4    6    1        -0.5494960108E-01      0.1348540073E+00
          0                 5           1             4    7     1       0.1184049507E-04       4    6    1         0.6963815904E-03      0.1826635752E-02

    ------------------------------------------------
       NWT REQUIRED            5 OUTER ITERATIONS 
       AND A TOTAL OF          9 INNER ITERATIONS.
    ------------------------------------------------

 NO OUTPUT CONTROL FOR STRESS PERIOD    6   TIME STEP    5
 
 SOLVING FOR HEAD 
                                                   Max.-Head-Change                         Max.-Flux-Residual
  Residual-Control   Outer-Iter.   Inner-Iter.     Column Row Layer    Maximum-Head-Change  Column Row Layer    Maximum-Flux-Residual          L2-NORM 
          0                 1           2             2   13     1       0.1309201990E-01       2   13    1         0.7418135685E+00      0.1469281650E+01
          0                 2           2             2   13     1      -0.1217767349E-02       2   13    1        -0.7093093035E-01      0.1434448500E+00
          0                 3           1             2   13     1       0.7777871949E-04       4   13    1         0.4755770207E-02      0.9716047043E-02

    ------------------------------------------------
       NWT REQUIRED            3 OUTER ITERATIONS 
       AND A TOTAL OF          5 INNER ITERATIONS.
    ------------------------------------------------

 NO OUTPUT CONTROL FOR STRESS PERIOD    6   TIME STEP    6
 
 SOLVING FOR HEAD 
                                                   Max.-Head-Change                         Max.-Flux-Residual
  Residual-Control   Outer-Iter.   Inner-Iter.     Column Row Layer    Maximum-Head-Change  Column Row Layer    Maximum-Flux-Residual          L2-NORM 
          0                 1           2             2   13     1       0.1203764733E-01       2   13    1         0.6821553226E+00      0.1357486205E+01
          0                 2           2             4    7     1      -0.2319423143E-01       5    6    1        -0.1246747158E+01      0.3080587582E+01
          0                 3           2             4    7     1       0.2412995383E-01       5    6    1         0.1332272183E+01      0.3274040827E+01
          0                 4           2             4    7     1      -0.9602724625E-03       4    6    1        -0.5496807434E-01      0.1348620562E+00
          0                 5           1             4    7     1       0.1184056026E-04       4    6    1         0.6966261474E-03      0.1827467611E-02

    ------------------------------------------------
       NWT REQUIRED            5 OUTER ITERATIONS 
       AND A TOTAL OF          9 INNER ITERATIONS.
    ------------------------------------------------

 NO OUTPUT CONTROL FOR STRESS PERIOD    6   TIME STEP    7
 
 SOLVING FOR HEAD 
                                                   Max.-Head-Change                         Max.-Flux-Residual
  Residual-Control   Outer-Iter.   Inner-Iter.     Column Row Layer    Maximum-Head-Change  Column Row Layer    Maximum-Flux-Residual          L2-NORM 
          0                 1           2             2   13     1       0.1152159300E-01       2   13    1         0.6529123696E+00      0.1309901681E+01
          0                 2           2             2   13     1      -0.1073989034E-02       2   13    1        -0.6256451931E-01      0.1281196973E+00
          0                 3           1             2   13     1       0.6881405782E-04       2   13    1         0.4120362815E-02      0.8700160697E-02

    ------------------------------------------------
       NWT REQUIRED            3 OUTER ITERATIONS 
       AND A TOTAL OF          5 INNER ITERATIONS.
    ------------------------------------------------

 NO OUTPUT CONTROL FOR STRESS PERIOD    6   TIME STEP    8
 
 SOLVING FOR HEAD 
                                                   Max.-Head-Change                         Max.-Flux-Residual
  Residual-Control   Outer-Iter.   Inner-Iter.     Column Row Layer    Maximum-Head-Change  Column Row Layer    Maximum-Flux-Residual          L2-NORM 
          0                 1           2             2   13     1       0.1059068511E-01       2   13    1         0.6002142149E+00      0.1219835052E+01
          0                 2           2             4    7     1      -0.2319464404E-01       5    6    1        -0.1246881058E+01      0.3078542394E+01
          0                 3           2             4    7     1       0.2412998624E-01       5    6    1         0.1332281556E+01      0.3274054604E+01
          0                 4           2             4    7     1      -0.9602779248E-03       4    6    1        -0.5498647131E-01      0.1348697564E+00
          0                 5           1             4    7     1       0.1184062792E-04       4    6    1         0.6968696675E-03      0.1827292727E-02

    ------------------------------------------------
       NWT REQUIRED            5 OUTER ITERATIONS 
       AND A TOTAL OF          9 INNER ITERATIONS.
    ------------------------------------------------

 NO OUTPUT CONTROL FOR STRESS PERIOD    6   TIME STEP    9
 
 SOLVING FOR HEAD 
                                                   Max.-Head-Change                         Max.-Flux-Residual
  Residual-Control   Outer-Iter.   Inner-Iter.     Column Row Layer    Maximum-Head-Change  Column Row Layer    Maximum-Flux-Residual          L2-NORM 
          0                 1           2             2   13     1       0.1018708152E-01       2   13    1         0.5773159687E+00      0.1187823158E+01
          0                 2           2             2   13     1      -0.9511160918E-03       2   13    1        -0.5540951239E-01      0.1163992958E+00
          0                 3           1             2   13     1       0.6109934024E-04       2   13    1         0.3658641045E-02      0.7926558304E-02

    ------------------------------------------------
       NWT REQUIRED            3 OUTER ITERATIONS 
       AND A TOTAL OF          5 INNER ITERATIONS.
    ------------------------------------------------

 NO OUTPUT CONTROL FOR STRESS PERIOD    6   TIME STEP   10
 
 SOLVING FOR HEAD 
                                                   Max.-Head-Change                         Max.-Flux-Residual
  Residual-Control   Outer-Iter.   Inner-Iter.     Column Row Layer    Maximum-Head-Change  Column Row Layer    Maximum-Flux-Residual          L2-NORM 
          0                 1           2             2   13     1       0.9362495597E-02       2   13    1         0.5306203834E+00      0.1114236610E+01
          0                 2           2             4    7     1      -0.2319510604E-01       5    6    1        -0.1247003216E+01      0.3077003426E+01
          0                 3           2             4    7     1       0.2413002203E-01       5    6    1         0.1332290107E+01      0.3274064737E+01
          0                 4           2             4    7     1      -0.9602835217E-03       4    6    1        -0.5500487861E-01      0.1348772165E+00
          0                 5           1             4    7     1       0.1184069669E-04       4    6    1         0.6971133414E-03      0.1827719524E-02

    ------------------------------------------------
       NWT REQUIRED            5 OUTER ITERATIONS 
       AND A TOTAL OF          9 INNER ITERATIONS.
    ------------------------------------------------

 NO OUTPUT CONTROL FOR STRESS PERIOD    6   TIME STEP   11
 
 SOLVING FOR HEAD 
                                                   Max.-Head-Change                         Max.-Flux-Residual
  Residual-Control   Outer-Iter.   Inner-Iter.     Column Row Layer    Maximum-Head-Change  Column Row Layer    Maximum-Flux-Residual          L2-NORM 
          0                 1           2             2   13     1       0.9055395187E-02       2   13    1         0.5131742567E+00      0.1093432054E+01
          0                 2           2             2   13     1      -0.8463774822E-03       2   13    1        -0.4930699686E-01      0.1073433780E+00
          0                 3           1             2   13     1       0.5443627053E-04       2   13    1         0.3259621110E-02      0.7326699184E-02

    ------------------------------------------------
       NWT REQUIRED            3 OUTER ITERATIONS 
       AND A TOTAL OF          5 INNER ITERATIONS.
    ------------------------------------------------

 NO OUTPUT CONTROL FOR STRESS PERIOD    6   TIME STEP   12
 
 SOLVING FOR HEAD 
                                                   Max.-Head-Change                         Max.-Flux-Residual
  Residual-Control   Outer-Iter.   Inner-Iter.     Column Row Layer    Maximum-Head-Change  Column Row Layer    Maximum-Flux-Residual          L2-NORM 
          0                 1           2             2   13     1       0.8321894263E-02       2   13    1         0.4716272040E+00      0.1032405489E+01
          0                 2           2             4    7     1      -0.2319560975E-01       5    6    1        -0.1247112778E+01      0.3075826886E+01
          0                 3           2             4    7     1       0.2413006068E-01       5    6    1         0.1332297777E+01      0.3274075734E+01
          0                 4           2             4    7     1      -0.9602892361E-03       4    6    1        -0.5502331225E-01      0.1348846383E+00
          0                 5           1             4    7     1       0.1184076726E-04       4    6    1         0.6973573138E-03      0.1827676065E-02

    ------------------------------------------------
       NWT REQUIRED            5 OUTER ITERATIONS 
       AND A TOTAL OF          9 INNER ITERATIONS.
    ------------------------------------------------

 NO OUTPUT CONTROL FOR STRESS PERIOD    6   TIME STEP   13
 
 SOLVING FOR HEAD 
                                                   Max.-Head-Change                         Max.-Flux-Residual
  Residual-Control   Outer-Iter.   Inner-Iter.     Column Row Layer    Maximum-Head-Change  Column Row Layer    Maximum-Flux-Residual          L2-NORM 
          0                 1           2             2   13     1       0.8097391116E-02       2   13    1         0.4588528482E+00      0.1019684126E+01
          0                 2           2             2   13     1      -0.7573918072E-03       2   13    1        -0.4411994245E-01      0.1002746421E+00
          0                 3           1             2   13     1       0.4877803895E-04       2   13    1         0.2920605812E-02      0.6862001682E-02

    ------------------------------------------------
       NWT REQUIRED            3 OUTER ITERATIONS 
       AND A TOTAL OF          5 INNER ITERATIONS.
    ------------------------------------------------

 NO OUTPUT CONTROL FOR STRESS PERIOD    6   TIME STEP   14
 
 SOLVING FOR HEAD 
                                                   Max.-Head-Change                         Max.-Flux-Residual
  Residual-Control   Outer-Iter.   Inner-Iter.     Column Row Layer    Maximum-Head-Change  Column Row Layer    Maximum-Flux-Residual          L2-NORM 
          0                 1           2             2   13     1       0.7441658078E-02       2   13    1         0.4217061223E+00      0.9682737322E+00
          0                 2           2             4    7     1      -0.2319614796E-01       5    6    1        -0.1247210836E+01      0.3074921991E+01
          0                 3           2             4    7     1       0.2413010170E-01       5    6    1         0.1332304641E+01      0.3274086658E+01
          0                 4           2             4    7     1      -0.9602950577E-03       4    6    1        -0.5504181248E-01      0.1348921931E+00
          0                 5           1             4    7     1       0.1184083940E-04       4    6    1         0.6976022041E-03      0.1828329994E-02

    ------------------------------------------------
       NWT REQUIRED            5 OUTER ITERATIONS 
       AND A TOTAL OF          9 INNER ITERATIONS.
    ------------------------------------------------

 NO OUTPUT CONTROL FOR STRESS PERIOD    6   TIME STEP   15
 
 SOLVING FOR HEAD 
                                                   Max.-Head-Change                         Max.-Flux-Residual
  Residual-Control   Outer-Iter.   Inner-Iter.     Column Row Layer    Maximum-Head-Change  Column Row Layer    Maximum-Flux-Residual          L2-NORM 
          0                 1           2             2   13     1       0.7287456010E-02       2   13    1         0.4129117128E+00      0.9614101674E+00
          0                 2           2             2   13     1      -0.6818699501E-03       2   13    1        -0.3971614297E-01      0.9468588411E-01
          0                 3           1             2    2     1       0.4461751904E-04       2   13    1         0.2631084555E-02      0.6493383255E-02

    ------------------------------------------------
       NWT REQUIRED            3 OUTER ITERATIONS 
       AND A TOTAL OF          5 INNER ITERATIONS.
    ------------------------------------------------

 NO OUTPUT CONTROL FOR STRESS PERIOD    6   TIME STEP   16
 
 SOLVING FOR HEAD 
                                                   Max.-Head-Change                         Max.-Flux-Residual
  Residual-Control   Outer-Iter.   Inner-Iter.     Column Row Layer    Maximum-Head-Change  Column Row Layer    Maximum-Flux-Residual          L2-NORM 
          0                 1           2             2    2     1       0.6701216892E-02       2   13    1         0.3795148485E+00      0.9174073436E+00
          0                 2           2             4    7     1      -0.2319673897E-01       5    6    1        -0.1247300012E+01      0.3074223110E+01
          0                 3           2             4    7     1       0.2413014636E-01       5    6    1         0.1332310883E+01      0.3274098026E+01
          0                 4           2             4    7     1      -0.9603010484E-03       4    6    1        -0.5506225254E-01      0.1349013381E+00
          0                 5           1             4    7     1       0.1184091288E-04       4    6    1         0.6978904853E-03      0.1828099000E-02

    ------------------------------------------------
       NWT REQUIRED            5 OUTER ITERATIONS 
       AND A TOTAL OF          9 INNER ITERATIONS.
    ------------------------------------------------

 NO OUTPUT CONTROL FOR STRESS PERIOD    6   TIME STEP   17
 
 SOLVING FOR HEAD 
                                                   Max.-Head-Change                         Max.-Flux-Residual
  Residual-Control   Outer-Iter.   Inner-Iter.     Column Row Layer    Maximum-Head-Change  Column Row Layer    Maximum-Flux-Residual          L2-NORM 
          0                 1           2             2    2     1       0.6666919597E-02       2   13    1         0.3741129082E+00      0.9148227894E+00
          0                 2           2             2    2     1      -0.6485110007E-03       2   13    1        -0.3598637133E-01      0.9021744571E-01
          0                 3           1             2    2     1       0.4416118007E-04       2    2    1         0.2433740870E-02      0.6198757602E-02

    ------------------------------------------------
       NWT REQUIRED            3 OUTER ITERATIONS 
       AND A TOTAL OF          5 INNER ITERATIONS.
    ------------------------------------------------

 NO OUTPUT CONTROL FOR STRESS PERIOD    6   TIME STEP   18
 
 SOLVING FOR HEAD 
                                                   Max.-Head-Change                         Max.-Flux-Residual
  Residual-Control   Outer-Iter.   Inner-Iter.     Column Row Layer    Maximum-Head-Change  Column Row Layer    Maximum-Flux-Residual          L2-NORM 
          0                 1           2             2    2     1       0.6633153387E-02       2    2    1         0.3459019421E+00      0.8765742561E+00
          0                 2           2             4    7     1      -0.2319732397E-01       5    6    1        -0.1247379617E+01      0.3073678647E+01
          0                 3           2             4    7     1       0.2413019064E-01       5    6    1         0.1332316455E+01      0.3274108461E+01
          0                 4           2             4    7     1      -0.9603070514E-03       4    6    1        -0.5508099135E-01      0.1349087211E+00
          0                 5           1             4    7     1       0.1184098704E-04       4    6    1         0.6981330384E-03      0.1827920756E-02

    ------------------------------------------------
       NWT REQUIRED            5 OUTER ITERATIONS 
       AND A TOTAL OF          9 INNER ITERATIONS.
    ------------------------------------------------

 NO OUTPUT CONTROL FOR STRESS PERIOD    6   TIME STEP   19
 
 SOLVING FOR HEAD 
                                                   Max.-Head-Change                         Max.-Flux-Residual
  Residual-Control   Outer-Iter.   Inner-Iter.     Column Row Layer    Maximum-Head-Change  Column Row Layer    Maximum-Flux-Residual          L2-NORM 
          0                 1           2             2    2     1       0.6599846025E-02       2    2    1         0.3441517726E+00      0.8771586793E+00
          0                 2           2             2    2     1      -0.6419865263E-03       2    2    1        -0.3441527522E-01      0.8659970572E-01
          0                 3           1             2    2     1       0.4371688801E-04       2    2    1         0.2409069374E-02      0.5958223086E-02

    ------------------------------------------------
       NWT REQUIRED            3 OUTER ITERATIONS 
       AND A TOTAL OF          5 INNER ITERATIONS.
    ------------------------------------------------

 NO OUTPUT CONTROL FOR STRESS PERIOD    6   TIME STEP   20
 
 SOLVING FOR HEAD 
                                                   Max.-Head-Change                         Max.-Flux-Residual
  Residual-Control   Outer-Iter.   Inner-Iter.     Column Row Layer    Maximum-Head-Change  Column Row Layer    Maximum-Flux-Residual          L2-NORM 
          0                 1           2             2    2     1       0.6566880980E-02       2    2    1         0.3424197108E+00      0.8434029069E+00
          0                 2           2             4    7     1      -0.2319795217E-01       5    6    1        -0.1247450517E+01      0.3073254412E+01
          0                 3           2             4    7     1       0.2413023790E-01       5    6    1         0.1332321418E+01      0.3274119124E+01
          0                 4           2             4    7     1      -0.9603132094E-03       4    6    1        -0.5509989869E-01      0.1349166842E+00
          0                 5           1             4    7     1       0.1184106298E-04       4    6    1         0.6983777660E-03      0.1828357877E-02

    ------------------------------------------------
       NWT REQUIRED            5 OUTER ITERATIONS 
       AND A TOTAL OF          9 INNER ITERATIONS.
    ------------------------------------------------

 NO OUTPUT CONTROL FOR STRESS PERIOD    6   TIME STEP   21
 
 SOLVING FOR HEAD 
                                                   Max.-Head-Change                         Max.-Flux-Residual
  Residual-Control   Outer-Iter.   Inner-Iter.     Column Row Layer    Maximum-Head-Change  Column Row Layer    Maximum-Flux-Residual          L2-NORM 
          0                 1           2             2    2     1       0.6534361242E-02       2    2    1         0.3407110675E+00      0.8463592584E+00
          0                 2           2             2    2     1      -0.6356165993E-03       2    2    1        -0.3407120184E-01      0.8363985818E-01
          0                 3           1             2    2     1       0.4328312011E-04       2    2    1         0.2384984265E-02      0.5763118588E-02

    ------------------------------------------------
       NWT REQUIRED            3 OUTER ITERATIONS 
       AND A TOTAL OF          5 INNER ITERATIONS.
    ------------------------------------------------

 NO OUTPUT CONTROL FOR STRESS PERIOD    6   TIME STEP   22
 
 SOLVING FOR HEAD 
                                                   Max.-Head-Change                         Max.-Flux-Residual
  Residual-Control   Outer-Iter.   Inner-Iter.     Column Row Layer    Maximum-Head-Change  Column Row Layer    Maximum-Flux-Residual          L2-NORM 
          0                 1           2             2    2     1       0.6502171398E-02       2    2    1         0.3390198557E+00      0.8161437104E+00
          0                 2           2             4    7     1      -0.2319856456E-01       5    6    1        -0.1247513570E+01      0.3072921825E+01
          0                 3           2             4    7     1       0.2413028411E-01       5    6    1         0.1332325832E+01      0.3274129571E+01
          0                 4           2             4    7     1      -0.9603193595E-03       4    6    1        -0.5511896050E-01      0.1349244781E+00
          0                 5           1             4    7     1       0.1184113893E-04       4    6    1         0.6986244794E-03      0.1828579797E-02

    ------------------------------------------------
       NWT REQUIRED            5 OUTER ITERATIONS 
       AND A TOTAL OF          9 INNER ITERATIONS.
    ------------------------------------------------

 NO OUTPUT CONTROL FOR STRESS PERIOD    6   TIME STEP   23
 
 SOLVING FOR HEAD 
                                                   Max.-Head-Change                         Max.-Flux-Residual
  Residual-Control   Outer-Iter.   Inner-Iter.     Column Row Layer    Maximum-Head-Change  Column Row Layer    Maximum-Flux-Residual          L2-NORM 
          0                 1           2             2    2     1       0.6470500870E-02       2    2    1         0.3373559435E+00      0.8209092965E+00
          0                 2           2             2    2     1      -0.6294046847E-03       2    2    1        -0.3373568669E-01      0.8118966962E-01
          0                 3           1             2    2     1       0.4286011207E-04       2    2    1         0.2361498219E-02      0.5600454791E-02

    ------------------------------------------------
       NWT REQUIRED            3 OUTER ITERATIONS 
       AND A TOTAL OF          5 INNER ITERATIONS.
    ------------------------------------------------

 NO OUTPUT CONTROL FOR STRESS PERIOD    6   TIME STEP   24
 
 SOLVING FOR HEAD 
                                                   Max.-Head-Change                         Max.-Flux-Residual
  Residual-Control   Outer-Iter.   Inner-Iter.     Column Row Layer    Maximum-Head-Change  Column Row Layer    Maximum-Flux-Residual          L2-NORM 
          0                 1           2             2    2     1       0.6439147492E-02       2    2    1         0.3357087748E+00      0.7934991049E+00
          0                 2           2             4    7     1      -0.2319921106E-01       5    6    1        -0.1247569605E+01      0.3072661549E+01
          0                 3           2             4    7     1       0.2413033270E-01       5    6    1         0.1332329755E+01      0.3274139730E+01
          0                 4           2             4    7     1      -0.9603256413E-03       4    6    1        -0.5513818378E-01      0.1349320078E+00
          0                 5           1             4    7     1       0.1184121599E-04       4    6    1         0.6988733260E-03      0.1827875006E-02

    ------------------------------------------------
       NWT REQUIRED            5 OUTER ITERATIONS 
       AND A TOTAL OF          9 INNER ITERATIONS.
    ------------------------------------------------

 NO OUTPUT CONTROL FOR STRESS PERIOD    6   TIME STEP   25
 
 SOLVING FOR HEAD 
                                                   Max.-Head-Change                         Max.-Flux-Residual
  Residual-Control   Outer-Iter.   Inner-Iter.     Column Row Layer    Maximum-Head-Change  Column Row Layer    Maximum-Flux-Residual          L2-NORM 
          0                 1           2             2    2     1       0.6408213414E-02       2    2    1         0.3340836691E+00      0.7996651757E+00
          0                 2           2             2    2     1      -0.6233457746E-03       2    2    1        -0.3340845663E-01      0.7914200371E-01
          0                 3           1             2    2     1       0.4244752335E-04       2    2    1         0.2338592142E-02      0.5463260835E-02

    ------------------------------------------------
       NWT REQUIRED            3 OUTER ITERATIONS 
       AND A TOTAL OF          5 INNER ITERATIONS.
    ------------------------------------------------

 NO OUTPUT CONTROL FOR STRESS PERIOD    6   TIME STEP   26
 
 SOLVING FOR HEAD 
                                                   Max.-Head-Change                         Max.-Flux-Residual
  Residual-Control   Outer-Iter.   Inner-Iter.     Column Row Layer    Maximum-Head-Change  Column Row Layer    Maximum-Flux-Residual          L2-NORM 
          0                 1           2             2    2     1       0.6377672352E-02       2    2    1         0.3324792478E+00      0.7744763689E+00
          0                 2           2             4    7     1      -0.2319986103E-01       5    6    1        -0.1247620942E+01      0.3072458620E+01
          0                 3           2             4    7     1       0.2413038156E-01       5    6    1         0.1332333348E+01      0.3274150207E+01
          0                 4           2             4    7     1      -0.9603319786E-03       4    6    1        -0.5515760866E-01      0.1349400290E+00
          0                 5           1             4    7     1       0.1184129440E-04       4    6    1         0.6991247301E-03      0.1828294683E-02

    ------------------------------------------------
       NWT REQUIRED            5 OUTER ITERATIONS 
       AND A TOTAL OF          9 INNER ITERATIONS.
    ------------------------------------------------

 NO OUTPUT CONTROL FOR STRESS PERIOD    6   TIME STEP   27
 
 SOLVING FOR HEAD 
                                                   Max.-Head-Change                         Max.-Flux-Residual
  Residual-Control   Outer-Iter.   Inner-Iter.     Column Row Layer    Maximum-Head-Change  Column Row Layer    Maximum-Flux-Residual          L2-NORM 
          0                 1           2             2    2     1       0.6347450187E-02       2    2    1         0.3308916960E+00      0.7817475652E+00
          0                 2           2             2    2     1      -0.6174351309E-03       2    2    1        -0.3308925679E-01      0.7741175323E-01
          0                 3           1             2    2     1       0.4204503063E-04       2    2    1         0.2316248146E-02      0.5348721037E-02

    ------------------------------------------------
       NWT REQUIRED            3 OUTER ITERATIONS 
       AND A TOTAL OF          5 INNER ITERATIONS.
    ------------------------------------------------

 NO OUTPUT CONTROL FOR STRESS PERIOD    6   TIME STEP   28
 
 SOLVING FOR HEAD 
                                                   Max.-Head-Change                         Max.-Flux-Residual
  Residual-Control   Outer-Iter.   Inner-Iter.     Column Row Layer    Maximum-Head-Change  Column Row Layer    Maximum-Flux-Residual          L2-NORM 
          0                 1           2             2    2     1       0.6317609490E-02       2    2    1         0.3293241984E+00      0.7583490465E+00
          0                 2           2             4    7     1      -0.2320051136E-01       5    6    1        -0.1247664997E+01      0.3072299357E+01
          0                 3           2             4    7     1       0.2413043048E-01       5    6    1         0.1332336432E+01      0.3274160531E+01
          0                 4           2             4    7     1      -0.9603383560E-03       4    6    1        -0.5517720166E-01      0.1349479926E+00
          0                 5           1             4    7     1       0.1184137304E-04       4    6    1         0.6993783347E-03      0.1828436837E-02

    ------------------------------------------------
       NWT REQUIRED            5 OUTER ITERATIONS 
       AND A TOTAL OF          9 INNER ITERATIONS.
    ------------------------------------------------

 NO OUTPUT CONTROL FOR STRESS PERIOD    6   TIME STEP   29
 
 SOLVING FOR HEAD 
                                                   Max.-Head-Change                         Max.-Flux-Residual
  Residual-Control   Outer-Iter.   Inner-Iter.     Column Row Layer    Maximum-Head-Change  Column Row Layer    Maximum-Flux-Residual          L2-NORM 
          0                 1           2             2    2     1       0.5801971666E-02       2    2    1         0.3023611836E+00      0.6421239565E+00
          0                 2           2             2    2     1      -0.5643634622E-03       2    2    1        -0.3023618812E-01      0.6400361968E-01
          0                 3           1             2    2     1       0.3843104941E-04       2    2    1         0.2116533426E-02      0.4456162504E-02

    ------------------------------------------------
       NWT REQUIRED            3 OUTER ITERATIONS 
       AND A TOTAL OF          5 INNER ITERATIONS.
    ------------------------------------------------

 NO OUTPUT CONTROL FOR STRESS PERIOD    6   TIME STEP   30



 STREAM LISTING     PERIOD      6   STEP       30

 LAYER ROW COL. STREAM  RCH.  FLOW INTO     FLOW TO   FLOW OUT OF   OVRLND.     DIRECT     STREAM       STREAM     STREAM     STREAM   STREAMBED  STREAMBED
                SEG.NO.  NO.  STRM. RCH.    AQUIFER    STRM. RCH.    RUNOFF     PRECIP       ET          HEAD       DEPTH      WIDTH   CONDCTNC.   GRADIENT

   1    1    1     1     1    6.9266E+01  4.0352E-01   6.8863E+01  0.000E+00  0.000E+00  0.000E+00  1.09468E+03  1.634E+00  1.935E+01  8.707E-02  1.545E+00
   1    2    2     1     2    6.8863E+01  6.2503E-01   6.8238E+01  0.000E+00  0.000E+00  0.000E+00  1.08969E+03  1.628E+00  1.929E+01  1.350E-01  1.543E+00
   1    3    3     1     3    6.8238E+01  5.3316E-01   6.7704E+01  0.000E+00  0.000E+00  0.000E+00  1.08404E+03  1.622E+00  1.923E+01  1.154E-01  1.541E+00
   1    3    4     1     4    6.7704E+01  4.9106E-01   6.7213E+01  0.000E+00  0.000E+00  0.000E+00  1.07902E+03  1.616E+00  1.917E+01  1.064E-01  1.539E+00
   1    4    5     2     1    6.5213E+01  4.0112E-01   6.4812E+01  0.000E+00  0.000E+00  0.000E+00  1.07408E+03  2.143E+00  1.200E+01  7.800E-02  1.714E+00
   1    5    6     2     2    6.4812E+01  3.0814E-01   6.4504E+01  0.000E+00  0.000E+00  0.000E+00  1.06865E+03  2.136E+00  1.200E+01  6.000E-02  1.712E+00
   1    6    6     2     3    6.4504E+01  3.0777E-01   6.4196E+01  0.000E+00  0.000E+00  0.000E+00  1.06392E+03  2.129E+00  1.200E+01  6.000E-02  1.710E+00
   1    7    6     2     4    6.4196E+01  3.0740E-01   6.3889E+01  0.000E+00  0.000E+00  0.000E+00  1.05920E+03  2.123E+00  1.200E+01  6.000E-02  1.708E+00
   1    8    6     2     5    6.3889E+01  3.0704E-01   6.3582E+01  0.000E+00  0.000E+00  0.000E+00  1.05448E+03  2.117E+00  1.200E+01  6.000E-02  1.706E+00
   1    3    5     3     1    2.0000E+00  2.8252E-01   1.7175E+00  0.000E+00  0.000E+00  0.000E+00  1.07555E+03  1.909E+00  9.636E+00  7.227E-02  1.955E+00
   1    3    6     3     2    1.7175E+00  2.4905E-01   1.4684E+00  0.000E+00  0.000E+00  0.000E+00  1.07264E+03  1.727E+00  8.909E+00  6.682E-02  1.864E+00
   1    3    7     3     3    1.4684E+00  1.9718E-01   1.2712E+00  0.000E+00  0.000E+00  0.000E+00  1.06987E+03  1.555E+00  8.218E+00  5.547E-02  1.777E+00
   1    4    8     3     4    1.2712E+00  2.2567E-01   1.0456E+00  0.000E+00  0.000E+00  0.000E+00  1.06682E+03  1.364E+00  7.455E+00  6.709E-02  1.682E+00
   1    5    8     3     5    1.0456E+00  1.5790E-01   8.8768E-01  0.000E+00  0.000E+00  0.000E+00  1.06362E+03  1.164E+00  6.655E+00  4.991E-02  1.582E+00
   1    6    8     3     6    8.8768E-01  5.5980E-02   8.3170E-01  0.000E+00  0.000E+00  0.000E+00  1.06158E+03  1.036E+00  6.145E+00  1.844E-02  1.518E+00
   1    5   10     4     1    1.0000E+01  9.0919E-02   9.9091E+00  0.000E+00  0.000E+00  0.000E+00  1.07836E+03  6.368E-01  1.000E+01  2.500E-02  1.212E+00
   1    5    9     4     2    9.9091E+00  1.8158E-01   9.7275E+00  0.000E+00  0.000E+00  0.000E+00  1.07154E+03  6.315E-01  1.000E+01  5.000E-02  1.211E+00
   1    6    8     4     3    9.7275E+00  1.2689E-01   9.6006E+00  0.000E+00  0.000E+00  0.000E+00  1.06381E+03  6.256E-01  1.000E+01  3.500E-02  1.209E+00
   1    6    8     5     1    1.0432E+01  2.2686E-01   1.0205E+01  0.000E+00  0.000E+00  0.000E+00  1.05868E+03  6.790E-01  1.542E+01  6.166E-02  1.226E+00
   1    7    7     5     2    1.0205E+01  2.7894E-01   9.9265E+00  0.000E+00  0.000E+00  0.000E+00  1.05417E+03  6.732E-01  1.519E+01  7.594E-02  1.224E+00
   1    8    7     5     3    9.9265E+00  1.9221E-01   9.7343E+00  0.000E+00  0.000E+00  0.000E+00  1.04992E+03  6.676E-01  1.497E+01  5.241E-02  1.223E+00
   1    8    6     5     4    9.7343E+00  1.3577E-01   9.5985E+00  0.000E+00  0.000E+00  0.000E+00  1.04691E+03  6.637E-01  1.482E+01  3.706E-02  1.221E+00
   1    9    6     6     1    7.3180E+01  3.1938E-01   7.2861E+01  0.000E+00  0.000E+00  0.000E+00  1.04505E+03  2.323E+00  1.200E+01  6.000E-02  1.774E+00
   1   10    7     6     2    7.2861E+01  3.1901E-01   7.2542E+01  0.000E+00  0.000E+00  0.000E+00  1.04050E+03  2.317E+00  1.200E+01  6.000E-02  1.772E+00
   1   11    7     6     3    7.2542E+01  3.1864E-01   7.2223E+01  0.000E+00  0.000E+00  0.000E+00  1.03595E+03  2.311E+00  1.200E+01  6.000E-02  1.770E+00
   1   12    7     6     4    7.2223E+01  3.1828E-01   7.1905E+01  0.000E+00  0.000E+00  0.000E+00  1.03140E+03  2.305E+00  1.200E+01  6.000E-02  1.768E+00
   1   13    7     6     5    7.1905E+01  2.5340E-02   7.1880E+01  0.000E+00  0.000E+00  0.000E+00  1.02821E+03  2.301E+00  1.200E+01  2.400E-02  3.519E-01
   1   14    9     7     1    1.5000E+02  1.3359E+00   1.4866E+02  0.000E+00  0.000E+00  0.000E+00  1.03987E+03  2.288E+00  5.529E+01  5.593E-01  7.962E-01
   1   13    8     7     2    1.4866E+02  1.8214E+00   1.4684E+02  0.000E+00  0.000E+00  0.000E+00  1.03478E+03  2.279E+00  5.526E+01  6.148E-01  9.876E-01
   1   13    7     7     3    1.4684E+02  1.4159E+00   1.4543E+02  0.000E+00  0.000E+00  0.000E+00  1.02969E+03  2.271E+00  5.522E+01  5.585E-01  8.451E-01
   1   13    6     8     1    2.1731E+02  1.0533E+00   2.1625E+02  0.000E+00  0.000E+00  0.000E+00  1.02511E+03  3.234E+00  4.689E+01  4.779E-01  7.348E-01
   1   13    5     8     2    2.1625E+02  2.3093E-01   2.1602E+02  0.000E+00  0.000E+00  0.000E+00  1.01886E+03  3.230E+00  4.684E+01  4.773E-01  1.613E-01
   1   13    4     8     3    2.1602E+02 -2.2192E+00   2.1824E+02  0.000E+00  0.000E+00  0.000E+00  1.01261E+03  3.236E+00  4.692E+01  4.781E+00 -1.547E-01
   1   13    3     8     4    2.1824E+02 -3.4035E+00   2.2164E+02  0.000E+00  0.000E+00  0.000E+00  1.00638E+03  3.252E+00  4.715E+01  4.805E+00 -2.361E-01
   1   13    2     8     5    2.2164E+02 -2.4009E+00   2.2405E+02  0.000E+00  0.000E+00  0.000E+00  1.00014E+03  3.268E+00  4.738E+01  4.828E+00 -1.658E-01
   1   13    1     8     6    2.2405E+02 -1.8343E+00   2.2588E+02  0.000E+00  0.000E+00  0.000E+00  9.95154E+02  3.279E+00  4.755E+01  2.907E+00 -2.103E-01
   1    8    6     9     1    0.0000E+00  0.0000E+00   0.0000E+00  0.000E+00  0.000E+00  0.000E+00  1.07875E+03  0.000E+00  4.000E+00  0.000E+00  1.000E+00
   1    8    5     9     2    0.0000E+00  0.0000E+00   0.0000E+00  0.000E+00  0.000E+00  0.000E+00  1.07825E+03  0.000E+00  4.000E+00  0.000E+00  1.000E+00





UNSATURATED ZONE PACKAGE VOLUMETRIC BUDGET FOR  TIME STEP    30 STRESS PERIOD    6
  ------------------------------------------------------------------------------



     CUMULATIVE VOLUMES      L**3       RATES FOR THIS TIME STEP      L**3/T
     ------------------                 ------------------------

           IN:                                      IN:
           ---                                      ---
        INFILTRATION =    40648393.5872          INFILTRATION =           0.8475

          OUT:                                     OUT:
          ----                                     ----
              UZF ET =    40491164.3744                UZF ET =           8.3178
        UZF RECHARGE =       73224.0000          UZF RECHARGE =       0.0000E+00

            IN - OUT =       84005.2128              IN - OUT =          -7.4703

          STORAGE:                                 STORAGE:
          --------                                 --------
      STORAGE CHANGE =       83975.8619        STORAGE CHANGE =          -7.4703

 PERCENT DISCREPANCY IS DIFFERENCE BETWEEN IN-OUT MINUS CHANGE IN STORAGE
 DIVIDED BY THE AVERAGE OF IN AND OUT TIMES 100

 PERCENT DISCREPANCY =           0.00     PERCENT DISCREPANCY =           0.00






1
  VOLUMETRIC BUDGET FOR AGRICULTURAL FIELDS AT  END OF TIME STEP   30, STRESS PERIOD   6
  ------------------------------------------------------------------------------

     CUMULATIVE VOLUMES      L**3       RATES FOR THIS TIME STEP      L**3/T
     ------------------                 ------------------------

           IN:                                      IN:
           ---                                      ---
               AG WELLS  =           0.0000                 AG WELLS  =           0.0000
      DIVERSION SEGMENTS =    29429956.0000        DIVERSION SEGMENTS =           0.0000
           GW IRRIGATION =           0.0000             GW IRRIGATION =           0.0000
           SW IRRIGATION =           0.0000             SW IRRIGATION =           0.0000
        SYSTEM LOSSES GW =           0.0000          SYSTEM LOSSES GW =           0.0000
        SYSTEM LOSSES SW =           0.0000          SYSTEM LOSSES SW =           0.0000

                TOTAL IN =    29429956.0000                  TOTAL IN =           0.0000

          OUT:                                     OUT:
          ----                                     ----
               AG WELLS  =           0.0000                 AG WELLS  =           0.0000
      DIVERSION SEGMENTS =           0.0000        DIVERSION SEGMENTS =           0.0000
           GW IRRIGATION =           0.0000             GW IRRIGATION =           0.0000
           SW IRRIGATION =    29430544.0000             SW IRRIGATION =           0.0000
        SYSTEM LOSSES GW =           0.0000          SYSTEM LOSSES GW =           0.0000
        SYSTEM LOSSES SW =           0.0000          SYSTEM LOSSES SW =           0.0000

               TOTAL OUT =    29430544.0000                 TOTAL OUT =           0.0000

                IN - OUT =        -588.0000                  IN - OUT =           0.0000

     PERCENT DISCREPANCY =          -0.00         PERCENT DISCREPANCY =           0.00



1
  VOLUMETRIC BUDGET FOR ENTIRE MODEL AT END OF TIME STEP   30, STRESS PERIOD   6
  ------------------------------------------------------------------------------

     CUMULATIVE VOLUMES      L**3       RATES FOR THIS TIME STEP      L**3/T
     ------------------                 ------------------------

           IN:                                      IN:
           ---                                      ---
             STORAGE     =     9552127.0000               STORAGE     =           0.3546
       CONSTANT HEAD     =           0.0000         CONSTANT HEAD     =           0.0000
     HEAD DEP BOUNDS     =     3781789.2500       HEAD DEP BOUNDS     =           0.2858
      STREAM LEAKAGE     =   161041888.0000        STREAM LEAKAGE     =          13.2438
        UZF RECHARGE     =       73223.9531          UZF RECHARGE     =           0.0000
               GW ET     =           0.0000                 GW ET     =           0.0000
     SURFACE LEAKAGE     =           0.0000       SURFACE LEAKAGE     =           0.0000
           AG WELLS      =           0.0000             AG WELLS      =           0.0000

                TOTAL IN =   174449024.0000                  TOTAL IN =          13.8842

          OUT:                                     OUT:
          ----                                     ----
             STORAGE     =    31848584.0000               STORAGE     =           3.3329
       CONSTANT HEAD     =           0.0000         CONSTANT HEAD     =           0.0000
     HEAD DEP BOUNDS     =     3858398.7500       HEAD DEP BOUNDS     =           0.2958
      STREAM LEAKAGE     =   137982720.0000        STREAM LEAKAGE     =           9.8579
        UZF RECHARGE     =           0.0000          UZF RECHARGE     =           0.0000
               GW ET     =      764185.8125                 GW ET     =           0.3985
     SURFACE LEAKAGE     =           0.0000       SURFACE LEAKAGE     =           0.0000
           AG WELLS      =           0.0000             AG WELLS      =           0.0000

               TOTAL OUT =   174453888.0000                 TOTAL OUT =          13.8851

                IN - OUT =       -4864.0000                  IN - OUT =      -8.5068E-04

     PERCENT DISCREPANCY =          -0.00         PERCENT DISCREPANCY =          -0.01






         TIME SUMMARY AT END OF TIME STEP   30 IN STRESS PERIOD    6
                    SECONDS     MINUTES      HOURS       DAYS        YEARS
                    -----------------------------------------------------------
   TIME STEP LENGTH  87667.      1461.1      24.352      1.0147     2.77799E-03
 STRESS PERIOD TIME 2.63000E+06  43833.      730.56      30.440     8.33397E-02
         TOTAL TIME 1.32364E+07 2.20607E+05  3676.8      153.20     0.41944    
1
1
                            STRESS PERIOD NO.    7, LENGTH =   2630000.    
                            -----------------------------------------------

                              NUMBER OF TIME STEPS =    30

                               MULTIPLIER FOR DELT =     1.000

                            INITIAL TIME STEP SIZE =   87666.66    

 REUSING NON-PARAMETER GHB CELLS FROM LAST STRESS PERIOD

      2 GHB CELLS

 REUSING STREAM SEGMENT DATA FROM LAST STRESS PERIOD



            AREAL INFILTRATION RATE
 READING ON UNIT   19 WITH FORMAT: (FREE)              

            1           2           3           4           5           6           7           8           9          10
 ........................................................................................................................
   1   1.0000E-10  2.0000E-10   0.000       0.000       0.000       0.000       0.000       0.000       0.000       0.000    
   2   2.0000E-10  1.0000E-10  2.0000E-10   0.000       0.000      8.0000E-10  8.0000E-10  5.0000E-10   0.000       0.000    
   3    0.000      5.0000E-10  1.0000E-10  1.0000E-10  8.0000E-10  8.0000E-10  5.0000E-10  5.0000E-10   0.000       0.000    
   4   8.0000E-10  5.0000E-10  1.0000E-10  1.0000E-10  1.0000E-10  1.0000E-10  1.0000E-10  1.0000E-10  2.0000E-10   0.000    
   5   8.0000E-10  5.0000E-10  1.0000E-10  1.0000E-10  1.0000E-10  1.0000E-10  1.0000E-10  1.0000E-10  1.0000E-10  1.0000E-10
   6   8.0000E-10  5.0000E-10  5.0000E-10  2.0000E-10  2.0000E-10  1.0000E-10  1.0000E-10  1.0000E-10  1.0000E-10  5.0000E-10
   7   8.0000E-10  5.0000E-10  5.0000E-10  2.0000E-10  2.0000E-10  1.0000E-10  1.0000E-10  2.0000E-10  2.0000E-10   0.000    
   8    0.000      5.0000E-10  5.0000E-10  2.0000E-10  2.0000E-10  1.0000E-10  1.0000E-10  2.0000E-10  5.0000E-10   0.000    
   9    0.000      5.0000E-10  5.0000E-10  2.0000E-10  2.0000E-10  1.0000E-10  1.0000E-10  2.0000E-10  5.0000E-10   0.000    
  10    0.000      5.0000E-10  5.0000E-10  2.0000E-10  2.0000E-10  1.0000E-10  1.0000E-10  2.0000E-10  5.0000E-10  8.0000E-10
  11    0.000      1.0000E-10  1.0000E-10  1.0000E-10  1.0000E-10  1.0000E-10  1.0000E-10  2.0000E-10  5.0000E-10   0.000    
  12   1.0000E-10  1.0000E-10  1.0000E-10  1.0000E-10  1.0000E-10  1.0000E-10  1.0000E-10  1.0000E-10  2.0000E-10   0.000    
  13   1.0000E-10  1.0000E-10  2.0000E-10  2.0000E-10  2.0000E-10  2.0000E-10  2.0000E-10  1.0000E-10  1.0000E-10   0.000    
  14    0.000      2.0000E-10  5.0000E-10  5.0000E-10  5.0000E-10  5.0000E-10  5.0000E-10  2.0000E-10  1.0000E-10   0.000    
  15    0.000       0.000      8.0000E-10  8.0000E-10  8.0000E-10  8.0000E-10   0.000       0.000       0.000       0.000    

                  ET RATE =  1.500000E-07

 USING ET EXTINCTION DEPTH FROM PREVIOUS STRESS PERIOD. CURRENT PERIOD IS:       7

 USING EXTINCTION WATER CONTENT FROM PREVIOUS STRESS PERIOD. CURRENT PERIOD IS:       7

 USING AIR ENTRY PRESSURE FROM PREVIOUS STRESS PERIOD. CURRENT PERIOD IS:       7

 USING ROOT PRESSURE HEAD FROM PREVIOUS STRESS PERIOD. CURRENT PERIOD IS:       7

 USING ROOT ACTIVITY FROM PREVIOUS STRESS PERIOD. CURRENT PERIOD IS:       7

 PROCESSING AG STRESS PERIOD DATA

 READING AG STRESS PERIOD DATA

 READING IRRIGATION SEGMENT

 READING IRRIGATION WELL

 READING SUPPLEMENTAL WELL

 END PROCESSING AG STRESS PERIOD DATA OPTIONS
 
 SOLVING FOR HEAD 
                                                   Max.-Head-Change                         Max.-Flux-Residual
  Residual-Control   Outer-Iter.   Inner-Iter.     Column Row Layer    Maximum-Head-Change  Column Row Layer    Maximum-Flux-Residual          L2-NORM 
          0                 1           2             3   13     1      -0.7471968669E-02       3   13    1        -0.4800973874E+00      0.8427165934E+00
          0                 2           2             4    7     1      -0.6974898924E-01       5    6    1        -0.3747697597E+01      0.9213481073E+01
          0                 3           2             4    7     1       0.7258220518E-01       5    6    1         0.4007337678E+01      0.9843741625E+01
          0                 4           2             4    7     1      -0.2888361351E-02       4    6    1        -0.1646060320E+00      0.4096502685E+00
          0                 5           1             4   13     1      -0.4458540354E-04       4   13    1        -0.3023030768E-02      0.7410648031E-02

    ------------------------------------------------
       NWT REQUIRED            5 OUTER ITERATIONS 
       AND A TOTAL OF          9 INNER ITERATIONS.
    ------------------------------------------------

 NO OUTPUT CONTROL FOR STRESS PERIOD    7   TIME STEP    1
 
 SOLVING FOR HEAD 
                                                   Max.-Head-Change                         Max.-Flux-Residual
  Residual-Control   Outer-Iter.   Inner-Iter.     Column Row Layer    Maximum-Head-Change  Column Row Layer    Maximum-Flux-Residual          L2-NORM 
          0                 1           2             2    2     1       0.5051659201E-02       2    2    1         0.2631262007E+00      0.6531489331E+00
          0                 2           2             7   13     1      -0.3999200162E-02       7   13    1        -0.2218402729E+00      0.2306439339E+00
          0                 3           2             7   13     1       0.2722330062E-03       7   13    1         0.1552345786E-01      0.1619417606E-01
          0                 4           1             7   13     1      -0.1082579434E-04       7   13    1        -0.6345303855E-03      0.6621746382E-03

    ------------------------------------------------
       NWT REQUIRED            4 OUTER ITERATIONS 
       AND A TOTAL OF          7 INNER ITERATIONS.
    ------------------------------------------------

 NO OUTPUT CONTROL FOR STRESS PERIOD    7   TIME STEP    2
 
 SOLVING FOR HEAD 
                                                   Max.-Head-Change                         Max.-Flux-Residual
  Residual-Control   Outer-Iter.   Inner-Iter.     Column Row Layer    Maximum-Head-Change  Column Row Layer    Maximum-Flux-Residual          L2-NORM 
          0                 1           2             2    2     1       0.5032072680E-02       2    2    1         0.2620979498E+00      0.5795887219E+00
          0                 2           2             4    7     1      -0.6974960137E-01       5    6    1        -0.3747695177E+01      0.9216995806E+01
          0                 3           2             4    7     1       0.7258225168E-01       5    6    1         0.4007337509E+01      0.9844439610E+01
          0                 4           2             4    7     1      -0.2888367708E-02       4    6    1        -0.1646259549E+00      0.4087568589E+00
          0                 5           1             4   13     1      -0.4460272921E-04       4   13    1        -0.3024036045E-02      0.7014072299E-02

    ------------------------------------------------
       NWT REQUIRED            5 OUTER ITERATIONS 
       AND A TOTAL OF          9 INNER ITERATIONS.
    ------------------------------------------------

 NO OUTPUT CONTROL FOR STRESS PERIOD    7   TIME STEP    3
 
 SOLVING FOR HEAD 
                                                   Max.-Head-Change                         Max.-Flux-Residual
  Residual-Control   Outer-Iter.   Inner-Iter.     Column Row Layer    Maximum-Head-Change  Column Row Layer    Maximum-Flux-Residual          L2-NORM 
          0                 1           2             2    2     1       0.5012727233E-02       2    2    1         0.2610824046E+00      0.5942418828E+00
          0                 2           2             7   13     1      -0.3996297707E-02       7   13    1        -0.2216760612E+00      0.2278896911E+00
          0                 3           2             7   13     1       0.2720511190E-03       7   13    1         0.1551285433E-01      0.1594827526E-01
          0                 4           1             7   13     1      -0.1081615839E-04       7   13    1        -0.6339563759E-03      0.6522998438E-03

    ------------------------------------------------
       NWT REQUIRED            4 OUTER ITERATIONS 
       AND A TOTAL OF          7 INNER ITERATIONS.
    ------------------------------------------------

 NO OUTPUT CONTROL FOR STRESS PERIOD    7   TIME STEP    4
 
 SOLVING FOR HEAD 
                                                   Max.-Head-Change                         Max.-Flux-Residual
  Residual-Control   Outer-Iter.   Inner-Iter.     Column Row Layer    Maximum-Head-Change  Column Row Layer    Maximum-Flux-Residual          L2-NORM 
          0                 1           2             2    2     1       0.4993532015E-02       2    2    1         0.2600748146E+00      0.5417026530E+00
          0                 2           2             4    7     1      -0.6975018857E-01       5    6    1        -0.3747690766E+01      0.9219565771E+01
          0                 3           2             4    7     1       0.7258229646E-01       5    6    1         0.4007337201E+01      0.9845727770E+01
          0                 4           2             4    7     1      -0.2888374027E-02       4    6    1        -0.1646460084E+00      0.4068511610E+00
          0                 5           1             7   13     1       0.4222254503E-04       7   13    1         0.2421321237E-02      0.6018917901E-02

    ------------------------------------------------
       NWT REQUIRED            5 OUTER ITERATIONS 
       AND A TOTAL OF          9 INNER ITERATIONS.
    ------------------------------------------------

 OUTPUT CONTROL FOR STRESS PERIOD    7   TIME STEP    5
    PRINT BUDGET
    SAVE BUDGET
 UBDSV1 SAVING "         STORAGE" ON UNIT 102 AT TIME STEP  5, STRESS PERIOD   7
 UBDSV2 SAVING "   CONSTANT HEAD" ON UNIT 102 AT TIME STEP  5, STRESS PERIOD   7
 UBDSV1 SAVING "FLOW RIGHT FACE " ON UNIT 102 AT TIME STEP  5, STRESS PERIOD   7
 UBDSV1 SAVING "FLOW FRONT FACE " ON UNIT 102 AT TIME STEP  5, STRESS PERIOD   7

  HEAD DEP BOUNDS   PERIOD    7   STEP     5
 BOUNDARY      1   LAYER   1   ROW    13   COL     1   RATE   -0.295098    
 BOUNDARY      2   LAYER   1   ROW    14   COL     9   RATE    0.285764    



 STREAM LISTING     PERIOD      7   STEP        5

 LAYER ROW COL. STREAM  RCH.  FLOW INTO     FLOW TO   FLOW OUT OF   OVRLND.     DIRECT     STREAM       STREAM     STREAM     STREAM   STREAMBED  STREAMBED
                SEG.NO.  NO.  STRM. RCH.    AQUIFER    STRM. RCH.    RUNOFF     PRECIP       ET          HEAD       DEPTH      WIDTH   CONDCTNC.   GRADIENT

   1    1    1     1     1    6.2250E+01  3.7978E-01   6.1870E+01  0.000E+00  0.000E+00  0.000E+00  1.09460E+03  1.553E+00  1.854E+01  8.342E-02  1.518E+00
   1    2    2     1     2    6.1870E+01  5.8817E-01   6.1282E+01  0.000E+00  0.000E+00  0.000E+00  1.08961E+03  1.547E+00  1.848E+01  1.294E-01  1.516E+00
   1    3    3     1     3    6.1282E+01  5.0163E-01   6.0781E+01  0.000E+00  0.000E+00  0.000E+00  1.08396E+03  1.540E+00  1.841E+01  1.105E-01  1.513E+00
   1    3    4     1     4    6.0781E+01  4.6194E-01   6.0319E+01  0.000E+00  0.000E+00  0.000E+00  1.07894E+03  1.534E+00  1.836E+01  1.019E-01  1.511E+00
   1    4    5     2     1    5.8319E+01  3.9026E-01   5.7928E+01  0.000E+00  0.000E+00  0.000E+00  1.07394E+03  2.003E+00  1.200E+01  7.800E-02  1.668E+00
   1    5    6     2     2    5.7928E+01  2.9977E-01   5.7629E+01  0.000E+00  0.000E+00  0.000E+00  1.06851E+03  1.996E+00  1.200E+01  6.000E-02  1.665E+00
   1    6    6     2     3    5.7629E+01  2.9940E-01   5.7329E+01  0.000E+00  0.000E+00  0.000E+00  1.06378E+03  1.990E+00  1.200E+01  6.000E-02  1.663E+00
   1    7    6     2     4    5.7329E+01  2.9903E-01   5.7030E+01  0.000E+00  0.000E+00  0.000E+00  1.05906E+03  1.984E+00  1.200E+01  6.000E-02  1.661E+00
   1    8    6     2     5    5.7030E+01  2.9865E-01   5.6732E+01  0.000E+00  0.000E+00  0.000E+00  1.05434E+03  1.978E+00  1.200E+01  6.000E-02  1.659E+00
   1    3    5     3     1    2.0000E+00  2.8252E-01   1.7175E+00  0.000E+00  0.000E+00  0.000E+00  1.07555E+03  1.909E+00  9.636E+00  7.227E-02  1.955E+00
   1    3    6     3     2    1.7175E+00  2.4905E-01   1.4684E+00  0.000E+00  0.000E+00  0.000E+00  1.07264E+03  1.727E+00  8.909E+00  6.682E-02  1.864E+00
   1    3    7     3     3    1.4684E+00  1.9718E-01   1.2712E+00  0.000E+00  0.000E+00  0.000E+00  1.06987E+03  1.555E+00  8.218E+00  5.547E-02  1.777E+00
   1    4    8     3     4    1.2712E+00  2.2567E-01   1.0456E+00  0.000E+00  0.000E+00  0.000E+00  1.06682E+03  1.364E+00  7.455E+00  6.709E-02  1.682E+00
   1    5    8     3     5    1.0456E+00  1.5790E-01   8.8768E-01  0.000E+00  0.000E+00  0.000E+00  1.06362E+03  1.164E+00  6.655E+00  4.991E-02  1.582E+00
   1    6    8     3     6    8.8768E-01  5.5980E-02   8.3170E-01  0.000E+00  0.000E+00  0.000E+00  1.06158E+03  1.036E+00  6.145E+00  1.844E-02  1.518E+00
   1    5   10     4     1    1.0000E+01  9.0919E-02   9.9091E+00  0.000E+00  0.000E+00  0.000E+00  1.07836E+03  6.368E-01  1.000E+01  2.500E-02  1.212E+00
   1    5    9     4     2    9.9091E+00  1.8158E-01   9.7275E+00  0.000E+00  0.000E+00  0.000E+00  1.07154E+03  6.315E-01  1.000E+01  5.000E-02  1.211E+00
   1    6    8     4     3    9.7275E+00  1.2689E-01   9.6006E+00  0.000E+00  0.000E+00  0.000E+00  1.06381E+03  6.256E-01  1.000E+01  3.500E-02  1.209E+00
   1    6    8     5     1    1.0432E+01  2.2686E-01   1.0205E+01  0.000E+00  0.000E+00  0.000E+00  1.05868E+03  6.790E-01  1.542E+01  6.166E-02  1.226E+00
   1    7    7     5     2    1.0205E+01  2.7894E-01   9.9265E+00  0.000E+00  0.000E+00  0.000E+00  1.05417E+03  6.732E-01  1.519E+01  7.594E-02  1.224E+00
   1    8    7     5     3    9.9265E+00  1.9221E-01   9.7343E+00  0.000E+00  0.000E+00  0.000E+00  1.04992E+03  6.676E-01  1.497E+01  5.241E-02  1.223E+00
   1    8    6     5     4    9.7343E+00  1.3577E-01   9.5985E+00  0.000E+00  0.000E+00  0.000E+00  1.04691E+03  6.637E-01  1.482E+01  3.706E-02  1.221E+00
   1    9    6     6     1    2.1390E+01  2.4649E-01   2.1144E+01  0.000E+00  0.000E+00  0.000E+00  1.04384E+03  1.108E+00  1.200E+01  6.000E-02  1.369E+00
   1   10    7     6     2    2.1144E+01  2.4603E-01   2.0898E+01  0.000E+00  0.000E+00  0.000E+00  1.03928E+03  1.100E+00  1.200E+01  6.000E-02  1.367E+00
   1   11    7     6     3    2.0898E+01  2.4556E-01   2.0652E+01  0.000E+00  0.000E+00  0.000E+00  1.03473E+03  1.093E+00  1.200E+01  6.000E-02  1.364E+00
   1   12    7     6     4    2.0652E+01  2.4510E-01   2.0407E+01  0.000E+00  0.000E+00  0.000E+00  1.03018E+03  1.085E+00  1.200E+01  6.000E-02  1.362E+00
   1   13    7     6     5    2.0407E+01 -3.9398E-02   2.0446E+01  0.000E+00  0.000E+00  0.000E+00  1.02699E+03  1.082E+00  1.200E+01  2.400E-01 -5.472E-02
   1   14    9     7     1    1.5000E+02  1.3359E+00   1.4866E+02  0.000E+00  0.000E+00  0.000E+00  1.03987E+03  2.288E+00  5.529E+01  5.593E-01  7.962E-01
   1   13    8     7     2    1.4866E+02  1.8209E+00   1.4684E+02  0.000E+00  0.000E+00  0.000E+00  1.03478E+03  2.279E+00  5.526E+01  6.148E-01  9.873E-01
   1   13    7     7     3    1.4684E+02  1.4158E+00   1.4543E+02  0.000E+00  0.000E+00  0.000E+00  1.02969E+03  2.271E+00  5.522E+01  5.585E-01  8.450E-01
   1   13    6     8     1    1.6587E+02  8.1921E-01   1.6505E+02  0.000E+00  0.000E+00  0.000E+00  1.02480E+03  2.922E+00  4.238E+01  4.318E-01  6.324E-01
   1   13    5     8     2    1.6505E+02  7.5805E-02   1.6498E+02  0.000E+00  0.000E+00  0.000E+00  1.01854E+03  2.919E+00  4.233E+01  4.314E-01  5.858E-02
   1   13    4     8     3    1.6498E+02 -3.1204E+00   1.6810E+02  0.000E+00  0.000E+00  0.000E+00  1.01230E+03  2.930E+00  4.248E+01  4.329E+00 -2.403E-01
   1   13    3     8     4    1.6810E+02 -4.1760E+00   1.7228E+02  0.000E+00  0.000E+00  0.000E+00  1.00608E+03  2.953E+00  4.282E+01  4.364E+00 -3.190E-01
   1   13    2     8     5    1.7228E+02 -3.2893E+00   1.7556E+02  0.000E+00  0.000E+00  0.000E+00  9.99853E+02  2.978E+00  4.317E+01  4.400E+00 -2.492E-01
   1   13    1     8     6    1.7556E+02 -2.3772E+00   1.7794E+02  0.000E+00  0.000E+00  0.000E+00  9.94871E+02  2.996E+00  4.344E+01  2.656E+00 -2.984E-01
   1    8    6     9     1    4.4940E+01  0.0000E+00   4.4940E+01  0.000E+00  0.000E+00  0.000E+00  1.08433E+03  5.583E+00  4.000E+00  0.000E+00  2.861E+00
   1    8    5     9     2    4.4940E+01  0.0000E+00   4.4940E+01  0.000E+00  0.000E+00  0.000E+00  1.08383E+03  5.583E+00  4.000E+00  0.000E+00  2.861E+00



 UBDSV3 SAVING "           GW ET" ON UNIT  61 AT TIME STEP  5, STRESS PERIOD   7
 UBDSV3 SAVING "    UZF RECHARGE" ON UNIT  61 AT TIME STEP  5, STRESS PERIOD   7
 UBDSV3 SAVING " SURFACE LEAKAGE" ON UNIT  61 AT TIME STEP  5, STRESS PERIOD   7
 UBDSV3 SAVING "       HORT+DUNN" ON UNIT  61 AT TIME STEP  5, STRESS PERIOD   7
 UBDSV3 SAVING "  STORAGE CHANGE" ON UNIT  61 AT TIME STEP  5, STRESS PERIOD   7


UNSATURATED ZONE PACKAGE VOLUMETRIC BUDGET FOR  TIME STEP     5 STRESS PERIOD    7
  ------------------------------------------------------------------------------



     CUMULATIVE VOLUMES      L**3       RATES FOR THIS TIME STEP      L**3/T
     ------------------                 ------------------------

           IN:                                      IN:
           ---                                      ---
        INFILTRATION =    52839710.0962          INFILTRATION =          45.7884

          OUT:                                     OUT:
          ----                                     ----
              UZF ET =    50712267.1663                UZF ET =          23.3175
        UZF RECHARGE =       73224.0000          UZF RECHARGE =       0.0000E+00

            IN - OUT =     2054218.9299              IN - OUT =          22.4709

          STORAGE:                                 STORAGE:
          --------                                 --------
      STORAGE CHANGE =     2054190.9167        STORAGE CHANGE =          22.4709

 PERCENT DISCREPANCY IS DIFFERENCE BETWEEN IN-OUT MINUS CHANGE IN STORAGE
 DIVIDED BY THE AVERAGE OF IN AND OUT TIMES 100

 PERCENT DISCREPANCY =           0.00     PERCENT DISCREPANCY =           0.00






 

            AG WELLS      PERIOD    7   STEP   5
 AG WELL      1   LAYER   1   ROW     6   COL     4   RATE     0.00000    
 AG WELL      2   LAYER   1   ROW     6   COL     5   RATE     0.00000    
 AG WELL      3   LAYER   1   ROW     7   COL     4   RATE     0.00000    
 AG WELL      4   LAYER   1   ROW     7   COL     5   RATE     0.00000    
 AG WELL      5   LAYER   1   ROW     8   COL     4   RATE     0.00000    
 AG WELL      6   LAYER   1   ROW     8   COL     5   RATE     0.00000    
 
 

   DIVERSION SEGMENTS     PERIOD    7   STEP   5
 SEGMENT      9   RATE     44.9400    
 
 

        SW IRRIGATION     PERIOD    7   STEP   5
 SEGMENT      9   ROW     6   COL     4   RATE     7.49015    
 SEGMENT      9   ROW     6   COL     5   RATE     7.49015    
 SEGMENT      9   ROW     7   COL     4   RATE     7.49015    
 SEGMENT      9   ROW     7   COL     5   RATE     7.49015    
 SEGMENT      9   ROW     8   COL     4   RATE     7.49015    
 SEGMENT      9   ROW     8   COL     5   RATE     7.49015    
 
 

        GW IRRIGATION     PERIOD    7   STEP   5
 AG WELL      1   ROW     6   COL     4   RATE     0.00000    
 AG WELL      2   ROW     6   COL     5   RATE     0.00000    
 AG WELL      3   ROW     7   COL     4   RATE     0.00000    
 AG WELL      4   ROW     7   COL     5   RATE     0.00000    
 AG WELL      5   ROW     8   COL     4   RATE     0.00000    
 AG WELL      6   ROW     8   COL     5   RATE     0.00000    
 
1
  VOLUMETRIC BUDGET FOR AGRICULTURAL FIELDS AT  END OF TIME STEP    5, STRESS PERIOD   7
  ------------------------------------------------------------------------------

     CUMULATIVE VOLUMES      L**3       RATES FOR THIS TIME STEP      L**3/T
     ------------------                 ------------------------

           IN:                                      IN:
           ---                                      ---
               AG WELLS  =           0.0000                 AG WELLS  =           0.0000
      DIVERSION SEGMENTS =    41249548.0000        DIVERSION SEGMENTS =          44.9400
           GW IRRIGATION =           0.0000             GW IRRIGATION =           0.0000
           SW IRRIGATION =           0.0000             SW IRRIGATION =           0.0000
        SYSTEM LOSSES GW =           0.0000          SYSTEM LOSSES GW =           0.0000
        SYSTEM LOSSES SW =           0.0000          SYSTEM LOSSES SW =           0.0000

                TOTAL IN =    41249548.0000                  TOTAL IN =          44.9400

          OUT:                                     OUT:
          ----                                     ----
               AG WELLS  =           0.0000                 AG WELLS  =           0.0000
      DIVERSION SEGMENTS =           0.0000        DIVERSION SEGMENTS =           0.0000
           GW IRRIGATION =           0.0000             GW IRRIGATION =           0.0000
           SW IRRIGATION =    41250372.0000             SW IRRIGATION =          44.9409
        SYSTEM LOSSES GW =           0.0000          SYSTEM LOSSES GW =           0.0000
        SYSTEM LOSSES SW =           0.0000          SYSTEM LOSSES SW =           0.0000

               TOTAL OUT =    41250372.0000                 TOTAL OUT =          44.9409

                IN - OUT =        -824.0000                  IN - OUT =      -8.9645E-04

     PERCENT DISCREPANCY =          -0.00         PERCENT DISCREPANCY =          -0.00



1
  VOLUMETRIC BUDGET FOR ENTIRE MODEL AT END OF TIME STEP    5, STRESS PERIOD   7
  ------------------------------------------------------------------------------

     CUMULATIVE VOLUMES      L**3       RATES FOR THIS TIME STEP      L**3/T
     ------------------                 ------------------------

           IN:                                      IN:
           ---                                      ---
             STORAGE     =    10618425.0000               STORAGE     =           3.2824
       CONSTANT HEAD     =           0.0000         CONSTANT HEAD     =           0.0000
     HEAD DEP BOUNDS     =     3907049.2500       HEAD DEP BOUNDS     =           0.2858
      STREAM LEAKAGE     =   166573264.0000        STREAM LEAKAGE     =          12.3709
        UZF RECHARGE     =       73223.9531          UZF RECHARGE     =           0.0000
               GW ET     =           0.0000                 GW ET     =           0.0000
     SURFACE LEAKAGE     =           0.0000       SURFACE LEAKAGE     =           0.0000
           AG WELLS      =           0.0000             AG WELLS      =           0.0000

                TOTAL IN =   181171952.0000                  TOTAL IN =          15.9390

          OUT:                                     OUT:
          ----                                     ----
             STORAGE     =    32916624.0000               STORAGE     =           2.1865
       CONSTANT HEAD     =           0.0000         CONSTANT HEAD     =           0.0000
     HEAD DEP BOUNDS     =     3987876.0000       HEAD DEP BOUNDS     =           0.2951
      STREAM LEAKAGE     =   143200768.0000        STREAM LEAKAGE     =          13.0023
        UZF RECHARGE     =           0.0000          UZF RECHARGE     =           0.0000
               GW ET     =     1071466.6250                 GW ET     =           0.4550
     SURFACE LEAKAGE     =           0.0000       SURFACE LEAKAGE     =           0.0000
           AG WELLS      =           0.0000             AG WELLS      =           0.0000

               TOTAL OUT =   181176736.0000                 TOTAL OUT =          15.9388

                IN - OUT =       -4784.0000                  IN - OUT =       1.4973E-04

     PERCENT DISCREPANCY =          -0.00         PERCENT DISCREPANCY =           0.00






         TIME SUMMARY AT END OF TIME STEP    5 IN STRESS PERIOD    7
                    SECONDS     MINUTES      HOURS       DAYS        YEARS
                    -----------------------------------------------------------
   TIME STEP LENGTH  87667.      1461.1      24.352      1.0147     2.77799E-03
 STRESS PERIOD TIME 4.38333E+05  7305.6      121.76      5.0733     1.38899E-02
         TOTAL TIME 1.36747E+07 2.27912E+05  3798.5      158.27     0.43333    
1
 
 SOLVING FOR HEAD 
                                                   Max.-Head-Change                         Max.-Flux-Residual
  Residual-Control   Outer-Iter.   Inner-Iter.     Column Row Layer    Maximum-Head-Change  Column Row Layer    Maximum-Flux-Residual          L2-NORM 
          0                 1           2             2    2     1       0.4974570856E-02       2    2    1         0.2590795581E+00      0.6654739373E+00
          0                 2           2             7   13     1      -0.3993749934E-02       7   13    1        -0.2215317214E+00      0.2289116050E+00
          0                 3           2             7   13     1       0.2718830656E-03       7   13    1         0.1550295557E-01      0.1600429625E-01
          0                 4           1             7   13     1      -0.1081395277E-04       7   13    1        -0.6338130995E-03      0.6561955873E-03

    ------------------------------------------------
       NWT REQUIRED            4 OUTER ITERATIONS 
       AND A TOTAL OF          7 INNER ITERATIONS.
    ------------------------------------------------

 NO OUTPUT CONTROL FOR STRESS PERIOD    7   TIME STEP    6
 
 SOLVING FOR HEAD 
                                                   Max.-Head-Change                         Max.-Flux-Residual
  Residual-Control   Outer-Iter.   Inner-Iter.     Column Row Layer    Maximum-Head-Change  Column Row Layer    Maximum-Flux-Residual          L2-NORM 
          0                 1           2             2    2     1       0.4955840524E-02       2    2    1         0.2580964457E+00      0.5982579379E+00
          0                 2           2             4    7     1      -0.6975077918E-01       5    6    1        -0.3747687943E+01      0.9221429381E+01
          0                 3           2             4    7     1       0.7258234151E-01       5    6    1         0.4007337003E+01      0.9845851952E+01
          0                 4           2             4    7     1      -0.2888380388E-02       4    6    1        -0.1646661924E+00      0.4068777296E+00
          0                 5           1             7   13     1       0.4229913747E-04       7   13    1         0.2425706369E-02      0.6021968558E-02

    ------------------------------------------------
       NWT REQUIRED            5 OUTER ITERATIONS 
       AND A TOTAL OF          9 INNER ITERATIONS.
    ------------------------------------------------

 NO OUTPUT CONTROL FOR STRESS PERIOD    7   TIME STEP    7
 
 SOLVING FOR HEAD 
                                                   Max.-Head-Change                         Max.-Flux-Residual
  Residual-Control   Outer-Iter.   Inner-Iter.     Column Row Layer    Maximum-Head-Change  Column Row Layer    Maximum-Flux-Residual          L2-NORM 
          0                 1           2             4   13     1       0.5326862363E-02       4   13    1         0.3435680770E+00      0.7525608228E+00
          0                 2           2             7   13     1      -0.3991472631E-02       7   13    1        -0.2214029013E+00      0.2308582036E+00
          0                 3           2             7   13     1       0.2717286931E-03       7   13    1         0.1549397833E-01      0.1612338982E-01
          0                 4           1             7   13     1      -0.1080682177E-04       7   13    1        -0.6333880965E-03      0.6570502922E-03

    ------------------------------------------------
       NWT REQUIRED            4 OUTER ITERATIONS 
       AND A TOTAL OF          7 INNER ITERATIONS.
    ------------------------------------------------

 NO OUTPUT CONTROL FOR STRESS PERIOD    7   TIME STEP    8
 
 SOLVING FOR HEAD 
                                                   Max.-Head-Change                         Max.-Flux-Residual
  Residual-Control   Outer-Iter.   Inner-Iter.     Column Row Layer    Maximum-Head-Change  Column Row Layer    Maximum-Flux-Residual          L2-NORM 
          0                 1           2             2    2     1       0.4919056099E-02       4   13    1         0.2805023851E+00      0.6667228595E+00
          0                 2           2             4    7     1      -0.6975132037E-01       5    6    1        -0.3747685216E+01      0.9222781642E+01
          0                 3           2             4    7     1       0.7258238314E-01       5    6    1         0.4007336813E+01      0.9845951313E+01
          0                 4           2             4    7     1      -0.2888386634E-02       4    6    1        -0.1646864748E+00      0.4069012808E+00
          0                 5           1             7   13     1       0.4237121104E-04       7   13    1         0.2429834088E-02      0.6024395856E-02

    ------------------------------------------------
       NWT REQUIRED            5 OUTER ITERATIONS 
       AND A TOTAL OF          9 INNER ITERATIONS.
    ------------------------------------------------

 NO OUTPUT CONTROL FOR STRESS PERIOD    7   TIME STEP    9
 
 SOLVING FOR HEAD 
                                                   Max.-Head-Change                         Max.-Flux-Residual
  Residual-Control   Outer-Iter.   Inner-Iter.     Column Row Layer    Maximum-Head-Change  Column Row Layer    Maximum-Flux-Residual          L2-NORM 
          0                 1           2             4   13     1       0.6391485510E-02       4   13    1         0.4122375849E+00      0.8245612742E+00
          0                 2           2             7   13     1      -0.3989437415E-02       7   13    1        -0.2212878202E+00      0.2327370683E+00
          0                 3           2             7   13     1       0.2715885899E-03       7   13    1         0.1548583871E-01      0.1624167699E-01
          0                 4           1             7   13     1      -0.1080098065E-04       7   13    1        -0.6330392644E-03      0.6611425626E-03

    ------------------------------------------------
       NWT REQUIRED            4 OUTER ITERATIONS 
       AND A TOTAL OF          7 INNER ITERATIONS.
    ------------------------------------------------

 OUTPUT CONTROL FOR STRESS PERIOD    7   TIME STEP   10
    PRINT BUDGET
    SAVE BUDGET
 UBDSV1 SAVING "         STORAGE" ON UNIT 102 AT TIME STEP 10, STRESS PERIOD   7
 UBDSV2 SAVING "   CONSTANT HEAD" ON UNIT 102 AT TIME STEP 10, STRESS PERIOD   7
 UBDSV1 SAVING "FLOW RIGHT FACE " ON UNIT 102 AT TIME STEP 10, STRESS PERIOD   7
 UBDSV1 SAVING "FLOW FRONT FACE " ON UNIT 102 AT TIME STEP 10, STRESS PERIOD   7

  HEAD DEP BOUNDS   PERIOD    7   STEP    10
 BOUNDARY      1   LAYER   1   ROW    13   COL     1   RATE   -0.294791    
 BOUNDARY      2   LAYER   1   ROW    14   COL     9   RATE    0.285765    



 STREAM LISTING     PERIOD      7   STEP       10

 LAYER ROW COL. STREAM  RCH.  FLOW INTO     FLOW TO   FLOW OUT OF   OVRLND.     DIRECT     STREAM       STREAM     STREAM     STREAM   STREAMBED  STREAMBED
                SEG.NO.  NO.  STRM. RCH.    AQUIFER    STRM. RCH.    RUNOFF     PRECIP       ET          HEAD       DEPTH      WIDTH   CONDCTNC.   GRADIENT

   1    1    1     1     1    6.2250E+01  3.7978E-01   6.1870E+01  0.000E+00  0.000E+00  0.000E+00  1.09460E+03  1.553E+00  1.854E+01  8.342E-02  1.518E+00
   1    2    2     1     2    6.1870E+01  5.8817E-01   6.1282E+01  0.000E+00  0.000E+00  0.000E+00  1.08961E+03  1.547E+00  1.848E+01  1.294E-01  1.516E+00
   1    3    3     1     3    6.1282E+01  5.0163E-01   6.0781E+01  0.000E+00  0.000E+00  0.000E+00  1.08396E+03  1.540E+00  1.841E+01  1.105E-01  1.513E+00
   1    3    4     1     4    6.0781E+01  4.6194E-01   6.0319E+01  0.000E+00  0.000E+00  0.000E+00  1.07894E+03  1.534E+00  1.836E+01  1.019E-01  1.511E+00
   1    4    5     2     1    5.8319E+01  3.9026E-01   5.7928E+01  0.000E+00  0.000E+00  0.000E+00  1.07394E+03  2.003E+00  1.200E+01  7.800E-02  1.668E+00
   1    5    6     2     2    5.7928E+01  2.9977E-01   5.7629E+01  0.000E+00  0.000E+00  0.000E+00  1.06851E+03  1.996E+00  1.200E+01  6.000E-02  1.665E+00
   1    6    6     2     3    5.7629E+01  2.9940E-01   5.7329E+01  0.000E+00  0.000E+00  0.000E+00  1.06378E+03  1.990E+00  1.200E+01  6.000E-02  1.663E+00
   1    7    6     2     4    5.7329E+01  2.9903E-01   5.7030E+01  0.000E+00  0.000E+00  0.000E+00  1.05906E+03  1.984E+00  1.200E+01  6.000E-02  1.661E+00
   1    8    6     2     5    5.7030E+01  2.9865E-01   5.6732E+01  0.000E+00  0.000E+00  0.000E+00  1.05434E+03  1.978E+00  1.200E+01  6.000E-02  1.659E+00
   1    3    5     3     1    2.0000E+00  2.8252E-01   1.7175E+00  0.000E+00  0.000E+00  0.000E+00  1.07555E+03  1.909E+00  9.636E+00  7.227E-02  1.955E+00
   1    3    6     3     2    1.7175E+00  2.4905E-01   1.4684E+00  0.000E+00  0.000E+00  0.000E+00  1.07264E+03  1.727E+00  8.909E+00  6.682E-02  1.864E+00
   1    3    7     3     3    1.4684E+00  1.9718E-01   1.2712E+00  0.000E+00  0.000E+00  0.000E+00  1.06987E+03  1.555E+00  8.218E+00  5.547E-02  1.777E+00
   1    4    8     3     4    1.2712E+00  2.2567E-01   1.0456E+00  0.000E+00  0.000E+00  0.000E+00  1.06682E+03  1.364E+00  7.455E+00  6.709E-02  1.682E+00
   1    5    8     3     5    1.0456E+00  1.5790E-01   8.8768E-01  0.000E+00  0.000E+00  0.000E+00  1.06362E+03  1.164E+00  6.655E+00  4.991E-02  1.582E+00
   1    6    8     3     6    8.8768E-01  5.5980E-02   8.3170E-01  0.000E+00  0.000E+00  0.000E+00  1.06158E+03  1.036E+00  6.145E+00  1.844E-02  1.518E+00
   1    5   10     4     1    1.0000E+01  9.0919E-02   9.9091E+00  0.000E+00  0.000E+00  0.000E+00  1.07836E+03  6.368E-01  1.000E+01  2.500E-02  1.212E+00
   1    5    9     4     2    9.9091E+00  1.8158E-01   9.7275E+00  0.000E+00  0.000E+00  0.000E+00  1.07154E+03  6.315E-01  1.000E+01  5.000E-02  1.211E+00
   1    6    8     4     3    9.7275E+00  1.2689E-01   9.6006E+00  0.000E+00  0.000E+00  0.000E+00  1.06381E+03  6.256E-01  1.000E+01  3.500E-02  1.209E+00
   1    6    8     5     1    1.0432E+01  2.2686E-01   1.0205E+01  0.000E+00  0.000E+00  0.000E+00  1.05868E+03  6.790E-01  1.542E+01  6.166E-02  1.226E+00
   1    7    7     5     2    1.0205E+01  2.7894E-01   9.9265E+00  0.000E+00  0.000E+00  0.000E+00  1.05417E+03  6.732E-01  1.519E+01  7.594E-02  1.224E+00
   1    8    7     5     3    9.9265E+00  1.9221E-01   9.7343E+00  0.000E+00  0.000E+00  0.000E+00  1.04992E+03  6.676E-01  1.497E+01  5.241E-02  1.223E+00
   1    8    6     5     4    9.7343E+00  1.3577E-01   9.5985E+00  0.000E+00  0.000E+00  0.000E+00  1.04691E+03  6.637E-01  1.482E+01  3.706E-02  1.221E+00
   1    9    6     6     1    6.6330E+01  3.1138E-01   6.6019E+01  0.000E+00  0.000E+00  0.000E+00  1.04492E+03  2.190E+00  1.200E+01  6.000E-02  1.730E+00
   1   10    7     6     2    6.6019E+01  3.1101E-01   6.5708E+01  0.000E+00  0.000E+00  0.000E+00  1.04037E+03  2.184E+00  1.200E+01  6.000E-02  1.728E+00
   1   11    7     6     3    6.5708E+01  3.1064E-01   6.5397E+01  0.000E+00  0.000E+00  0.000E+00  1.03581E+03  2.177E+00  1.200E+01  6.000E-02  1.726E+00
   1   12    7     6     4    6.5397E+01  3.1027E-01   6.5087E+01  0.000E+00  0.000E+00  0.000E+00  1.03126E+03  2.171E+00  1.200E+01  6.000E-02  1.724E+00
   1   13    7     6     5    6.5087E+01  2.2099E-02   6.5065E+01  0.000E+00  0.000E+00  0.000E+00  1.02808E+03  2.168E+00  1.200E+01  2.400E-02  3.069E-01
   1   14    9     7     1    1.5000E+02  1.3359E+00   1.4866E+02  0.000E+00  0.000E+00  0.000E+00  1.03987E+03  2.288E+00  5.529E+01  5.593E-01  7.962E-01
   1   13    8     7     2    1.4866E+02  1.8204E+00   1.4684E+02  0.000E+00  0.000E+00  0.000E+00  1.03478E+03  2.279E+00  5.526E+01  6.148E-01  9.870E-01
   1   13    7     7     3    1.4684E+02  1.4151E+00   1.4543E+02  0.000E+00  0.000E+00  0.000E+00  1.02969E+03  2.271E+00  5.522E+01  5.585E-01  8.446E-01
   1   13    6     8     1    2.1049E+02  1.0249E+00   2.0947E+02  0.000E+00  0.000E+00  0.000E+00  1.02507E+03  3.196E+00  4.634E+01  4.722E-01  7.235E-01
   1   13    5     8     2    2.0947E+02  2.1200E-01   2.0926E+02  0.000E+00  0.000E+00  0.000E+00  1.01882E+03  3.192E+00  4.628E+01  4.717E-01  1.498E-01
   1   13    4     8     3    2.0926E+02 -2.1075E+00   2.1136E+02  0.000E+00  0.000E+00  0.000E+00  1.01257E+03  3.197E+00  4.636E+01  4.725E+00 -1.487E-01
   1   13    3     8     4    2.1136E+02 -3.2696E+00   2.1463E+02  0.000E+00  0.000E+00  0.000E+00  1.00634E+03  3.213E+00  4.658E+01  4.747E+00 -2.296E-01
   1   13    2     8     5    2.1463E+02 -2.3045E+00   2.1694E+02  0.000E+00  0.000E+00  0.000E+00  1.00010E+03  3.228E+00  4.681E+01  4.770E+00 -1.610E-01
   1   13    1     8     6    2.1694E+02 -1.8460E+00   2.1878E+02  0.000E+00  0.000E+00  0.000E+00  9.95115E+02  3.240E+00  4.698E+01  2.872E+00 -2.142E-01
   1    8    6     9     1    0.0000E+00  0.0000E+00   0.0000E+00  0.000E+00  0.000E+00  0.000E+00  1.07875E+03  0.000E+00  4.000E+00  0.000E+00  1.000E+00
   1    8    5     9     2    0.0000E+00  0.0000E+00   0.0000E+00  0.000E+00  0.000E+00  0.000E+00  1.07825E+03  0.000E+00  4.000E+00  0.000E+00  1.000E+00



 UBDSV3 SAVING "           GW ET" ON UNIT  61 AT TIME STEP 10, STRESS PERIOD   7
 UBDSV3 SAVING "    UZF RECHARGE" ON UNIT  61 AT TIME STEP 10, STRESS PERIOD   7
 UBDSV3 SAVING " SURFACE LEAKAGE" ON UNIT  61 AT TIME STEP 10, STRESS PERIOD   7
 UBDSV3 SAVING "       HORT+DUNN" ON UNIT  61 AT TIME STEP 10, STRESS PERIOD   7
 UBDSV3 SAVING "  STORAGE CHANGE" ON UNIT  61 AT TIME STEP 10, STRESS PERIOD   7


UNSATURATED ZONE PACKAGE VOLUMETRIC BUDGET FOR  TIME STEP    10 STRESS PERIOD    7
  ------------------------------------------------------------------------------



     CUMULATIVE VOLUMES      L**3       RATES FOR THIS TIME STEP      L**3/T
     ------------------                 ------------------------

           IN:                                      IN:
           ---                                      ---
        INFILTRATION =    61090835.3252          INFILTRATION =           0.8475

          OUT:                                     OUT:
          ----                                     ----
              UZF ET =    60933344.8332                UZF ET =          23.3184
        UZF RECHARGE =       73224.0000          UZF RECHARGE =       0.0000E+00

            IN - OUT =       84266.4920              IN - OUT =         -22.4709

          STORAGE:                                 STORAGE:
          --------                                 --------
      STORAGE CHANGE =       84242.0924        STORAGE CHANGE =         -22.4709

 PERCENT DISCREPANCY IS DIFFERENCE BETWEEN IN-OUT MINUS CHANGE IN STORAGE
 DIVIDED BY THE AVERAGE OF IN AND OUT TIMES 100

 PERCENT DISCREPANCY =           0.00     PERCENT DISCREPANCY =          -0.00






 

            AG WELLS      PERIOD    7   STEP  10
 AG WELL      1   LAYER   1   ROW     6   COL     4   RATE     0.00000    
 AG WELL      2   LAYER   1   ROW     6   COL     5   RATE     0.00000    
 AG WELL      3   LAYER   1   ROW     7   COL     4   RATE     0.00000    
 AG WELL      4   LAYER   1   ROW     7   COL     5   RATE     0.00000    
 AG WELL      5   LAYER   1   ROW     8   COL     4   RATE     0.00000    
 AG WELL      6   LAYER   1   ROW     8   COL     5   RATE     0.00000    
 
 

   DIVERSION SEGMENTS     PERIOD    7   STEP  10
 SEGMENT      9   RATE     0.00000    
 
 

        SW IRRIGATION     PERIOD    7   STEP  10
 SEGMENT      9   ROW     6   COL     4   RATE     0.00000    
 SEGMENT      9   ROW     6   COL     5   RATE     0.00000    
 SEGMENT      9   ROW     7   COL     4   RATE     0.00000    
 SEGMENT      9   ROW     7   COL     5   RATE     0.00000    
 SEGMENT      9   ROW     8   COL     4   RATE     0.00000    
 SEGMENT      9   ROW     8   COL     5   RATE     0.00000    
 
 

        GW IRRIGATION     PERIOD    7   STEP  10
 AG WELL      1   ROW     6   COL     4   RATE     0.00000    
 AG WELL      2   ROW     6   COL     5   RATE     0.00000    
 AG WELL      3   ROW     7   COL     4   RATE     0.00000    
 AG WELL      4   ROW     7   COL     5   RATE     0.00000    
 AG WELL      5   ROW     8   COL     4   RATE     0.00000    
 AG WELL      6   ROW     8   COL     5   RATE     0.00000    
 
1
  VOLUMETRIC BUDGET FOR AGRICULTURAL FIELDS AT  END OF TIME STEP   10, STRESS PERIOD   7
  ------------------------------------------------------------------------------

     CUMULATIVE VOLUMES      L**3       RATES FOR THIS TIME STEP      L**3/T
     ------------------                 ------------------------

           IN:                                      IN:
           ---                                      ---
               AG WELLS  =           0.0000                 AG WELLS  =           0.0000
      DIVERSION SEGMENTS =    49129028.0000        DIVERSION SEGMENTS =           0.0000
           GW IRRIGATION =           0.0000             GW IRRIGATION =           0.0000
           SW IRRIGATION =           0.0000             SW IRRIGATION =           0.0000
        SYSTEM LOSSES GW =           0.0000          SYSTEM LOSSES GW =           0.0000
        SYSTEM LOSSES SW =           0.0000          SYSTEM LOSSES SW =           0.0000

                TOTAL IN =    49129028.0000                  TOTAL IN =           0.0000

          OUT:                                     OUT:
          ----                                     ----
               AG WELLS  =           0.0000                 AG WELLS  =           0.0000
      DIVERSION SEGMENTS =           0.0000        DIVERSION SEGMENTS =           0.0000
           GW IRRIGATION =           0.0000             GW IRRIGATION =           0.0000
           SW IRRIGATION =    49130012.0000             SW IRRIGATION =           0.0000
        SYSTEM LOSSES GW =           0.0000          SYSTEM LOSSES GW =           0.0000
        SYSTEM LOSSES SW =           0.0000          SYSTEM LOSSES SW =           0.0000

               TOTAL OUT =    49130012.0000                 TOTAL OUT =           0.0000

                IN - OUT =        -984.0000                  IN - OUT =           0.0000

     PERCENT DISCREPANCY =          -0.00         PERCENT DISCREPANCY =           0.00



1
  VOLUMETRIC BUDGET FOR ENTIRE MODEL AT END OF TIME STEP   10, STRESS PERIOD   7
  ------------------------------------------------------------------------------

     CUMULATIVE VOLUMES      L**3       RATES FOR THIS TIME STEP      L**3/T
     ------------------                 ------------------------

           IN:                                      IN:
           ---                                      ---
             STORAGE     =    11221827.0000               STORAGE     =           0.3446
       CONSTANT HEAD     =           0.0000         CONSTANT HEAD     =           0.0000
     HEAD DEP BOUNDS     =     4032309.2500       HEAD DEP BOUNDS     =           0.2858
      STREAM LEAKAGE     =   172159632.0000        STREAM LEAKAGE     =          12.9938
        UZF RECHARGE     =       73223.9531          UZF RECHARGE     =           0.0000
               GW ET     =           0.0000                 GW ET     =           0.0000
     SURFACE LEAKAGE     =           0.0000       SURFACE LEAKAGE     =           0.0000
           AG WELLS      =           0.0000             AG WELLS      =           0.0000

                TOTAL IN =   187486976.0000                  TOTAL IN =          13.6241

          OUT:                                     OUT:
          ----                                     ----
             STORAGE     =    34160580.0000               STORAGE     =           3.4647
       CONSTANT HEAD     =           0.0000         CONSTANT HEAD     =           0.0000
     HEAD DEP BOUNDS     =     4117142.7500       HEAD DEP BOUNDS     =           0.2948
      STREAM LEAKAGE     =   147982224.0000        STREAM LEAKAGE     =           9.5277
        UZF RECHARGE     =           0.0000          UZF RECHARGE     =           0.0000
               GW ET     =     1231777.8750                 GW ET     =           0.3368
     SURFACE LEAKAGE     =           0.0000       SURFACE LEAKAGE     =           0.0000
           AG WELLS      =           0.0000             AG WELLS      =           0.0000

               TOTAL OUT =   187491728.0000                 TOTAL OUT =          13.6241

                IN - OUT =       -4752.0000                  IN - OUT =       2.2888E-05

     PERCENT DISCREPANCY =          -0.00         PERCENT DISCREPANCY =           0.00






         TIME SUMMARY AT END OF TIME STEP   10 IN STRESS PERIOD    7
                    SECONDS     MINUTES      HOURS       DAYS        YEARS
                    -----------------------------------------------------------
   TIME STEP LENGTH  87667.      1461.1      24.352      1.0147     2.77799E-03
 STRESS PERIOD TIME 8.76667E+05  14611.      243.52      10.147     2.77799E-02
         TOTAL TIME 1.41131E+07 2.35218E+05  3920.3      163.35     0.44722    
1
 
 SOLVING FOR HEAD 
                                                   Max.-Head-Change                         Max.-Flux-Residual
  Residual-Control   Outer-Iter.   Inner-Iter.     Column Row Layer    Maximum-Head-Change  Column Row Layer    Maximum-Flux-Residual          L2-NORM 
          0                 1           2             4   13     1       0.5210781186E-02       4   13    1         0.3358360242E+00      0.7241915345E+00
          0                 2           2             4    7     1      -0.6975186548E-01       5    6    1        -0.3747681034E+01      0.9223771235E+01
          0                 3           2             4    7     1       0.7258242505E-01       5    6    1         0.4007336520E+01      0.9846031961E+01
          0                 4           2             4    7     1      -0.2888392912E-02       4    6    1        -0.1647068359E+00      0.4069221240E+00
          0                 5           1             7   13     1       0.4243484775E-04       7   13    1         0.2433475690E-02      0.6026424794E-02

    ------------------------------------------------
       NWT REQUIRED            5 OUTER ITERATIONS 
       AND A TOTAL OF          9 INNER ITERATIONS.
    ------------------------------------------------

 NO OUTPUT CONTROL FOR STRESS PERIOD    7   TIME STEP   11
 
 SOLVING FOR HEAD 
                                                   Max.-Head-Change                         Max.-Flux-Residual
  Residual-Control   Outer-Iter.   Inner-Iter.     Column Row Layer    Maximum-Head-Change  Column Row Layer    Maximum-Flux-Residual          L2-NORM 
          0                 1           2             4   13     1       0.7087125989E-02       4   13    1         0.4570799581E+00      0.8789496068E+00
          0                 2           2             7   13     1      -0.3987616035E-02       7   13    1        -0.2211848612E+00      0.2342809333E+00
          0                 3           2             7   13     1       0.2714662073E-03       7   13    1         0.1547871955E-01      0.1633960881E-01
          0                 4           1             7   13     1      -0.1079648791E-04       7   13    1        -0.6327699839E-03      0.6645456115E-03

    ------------------------------------------------
       NWT REQUIRED            4 OUTER ITERATIONS 
       AND A TOTAL OF          7 INNER ITERATIONS.
    ------------------------------------------------

 NO OUTPUT CONTROL FOR STRESS PERIOD    7   TIME STEP   12
 
 SOLVING FOR HEAD 
                                                   Max.-Head-Change                         Max.-Flux-Residual
  Residual-Control   Outer-Iter.   Inner-Iter.     Column Row Layer    Maximum-Head-Change  Column Row Layer    Maximum-Flux-Residual          L2-NORM 
          0                 1           2             4   13     1       0.5771849970E-02       4   13    1         0.3719913301E+00      0.7683938736E+00
          0                 2           2             4    7     1      -0.6975236109E-01       5    6    1        -0.3747678958E+01      0.9224504841E+01
          0                 3           2             4    7     1       0.7258246352E-01       5    6    1         0.4007336375E+01      0.9846098670E+01
          0                 4           2             4    7     1      -0.2888399063E-02       4    6    1        -0.1647272353E+00      0.4069415784E+00
          0                 5           1             7   13     1       0.4249884681E-04       7   13    1         0.2437145652E-02      0.6028853896E-02

    ------------------------------------------------
       NWT REQUIRED            5 OUTER ITERATIONS 
       AND A TOTAL OF          9 INNER ITERATIONS.
    ------------------------------------------------

 NO OUTPUT CONTROL FOR STRESS PERIOD    7   TIME STEP   13
 
 SOLVING FOR HEAD 
                                                   Max.-Head-Change                         Max.-Flux-Residual
  Residual-Control   Outer-Iter.   Inner-Iter.     Column Row Layer    Maximum-Head-Change  Column Row Layer    Maximum-Flux-Residual          L2-NORM 
          0                 1           2             4   13     1       0.7542305047E-02       4   13    1         0.4863991415E+00      0.9191150850E+00
          0                 2           2             7   13     1      -0.3985978988E-02       7   13    1        -0.2210923597E+00      0.2354762382E+00
          0                 3           2             7   13     1       0.2713557225E-03       7   13    1         0.1547230707E-01      0.1641444712E-01
          0                 4           1             7   13     1      -0.1079276929E-04       7   13    1        -0.6325518273E-03      0.6674231577E-03

    ------------------------------------------------
       NWT REQUIRED            4 OUTER ITERATIONS 
       AND A TOTAL OF          7 INNER ITERATIONS.
    ------------------------------------------------

 NO OUTPUT CONTROL FOR STRESS PERIOD    7   TIME STEP   14
 
 SOLVING FOR HEAD 
                                                   Max.-Head-Change                         Max.-Flux-Residual
  Residual-Control   Outer-Iter.   Inner-Iter.     Column Row Layer    Maximum-Head-Change  Column Row Layer    Maximum-Flux-Residual          L2-NORM 
          0                 1           2             4   13     1       0.6139310185E-02       4   13    1         0.3956498755E+00      0.8016300147E+00
          0                 2           2             4    7     1      -0.6975286249E-01       5    6    1        -0.3747677175E+01      0.9225060475E+01
          0                 3           2             4    7     1       0.7258250239E-01       5    6    1         0.4007336250E+01      0.9846154796E+01
          0                 4           2             4    7     1      -0.2888405238E-02       4    6    1        -0.1647476675E+00      0.4069593247E+00
          0                 5           1             7   13     1       0.4255557964E-04       7   13    1         0.2440393599E-02      0.6031495966E-02

    ------------------------------------------------
       NWT REQUIRED            5 OUTER ITERATIONS 
       AND A TOTAL OF          9 INNER ITERATIONS.
    ------------------------------------------------

 OUTPUT CONTROL FOR STRESS PERIOD    7   TIME STEP   15
    PRINT BUDGET
    SAVE BUDGET
 UBDSV1 SAVING "         STORAGE" ON UNIT 102 AT TIME STEP 15, STRESS PERIOD   7
 UBDSV2 SAVING "   CONSTANT HEAD" ON UNIT 102 AT TIME STEP 15, STRESS PERIOD   7
 UBDSV1 SAVING "FLOW RIGHT FACE " ON UNIT 102 AT TIME STEP 15, STRESS PERIOD   7
 UBDSV1 SAVING "FLOW FRONT FACE " ON UNIT 102 AT TIME STEP 15, STRESS PERIOD   7

  HEAD DEP BOUNDS   PERIOD    7   STEP    15
 BOUNDARY      1   LAYER   1   ROW    13   COL     1   RATE   -0.294241    
 BOUNDARY      2   LAYER   1   ROW    14   COL     9   RATE    0.285765    



 STREAM LISTING     PERIOD      7   STEP       15

 LAYER ROW COL. STREAM  RCH.  FLOW INTO     FLOW TO   FLOW OUT OF   OVRLND.     DIRECT     STREAM       STREAM     STREAM     STREAM   STREAMBED  STREAMBED
                SEG.NO.  NO.  STRM. RCH.    AQUIFER    STRM. RCH.    RUNOFF     PRECIP       ET          HEAD       DEPTH      WIDTH   CONDCTNC.   GRADIENT

   1    1    1     1     1    6.2250E+01  3.7978E-01   6.1870E+01  0.000E+00  0.000E+00  0.000E+00  1.09460E+03  1.553E+00  1.854E+01  8.342E-02  1.518E+00
   1    2    2     1     2    6.1870E+01  5.8817E-01   6.1282E+01  0.000E+00  0.000E+00  0.000E+00  1.08961E+03  1.547E+00  1.848E+01  1.294E-01  1.516E+00
   1    3    3     1     3    6.1282E+01  5.0163E-01   6.0781E+01  0.000E+00  0.000E+00  0.000E+00  1.08396E+03  1.540E+00  1.841E+01  1.105E-01  1.513E+00
   1    3    4     1     4    6.0781E+01  4.6194E-01   6.0319E+01  0.000E+00  0.000E+00  0.000E+00  1.07894E+03  1.534E+00  1.836E+01  1.019E-01  1.511E+00
   1    4    5     2     1    5.8319E+01  3.9026E-01   5.7928E+01  0.000E+00  0.000E+00  0.000E+00  1.07394E+03  2.003E+00  1.200E+01  7.800E-02  1.668E+00
   1    5    6     2     2    5.7928E+01  2.9977E-01   5.7629E+01  0.000E+00  0.000E+00  0.000E+00  1.06851E+03  1.996E+00  1.200E+01  6.000E-02  1.665E+00
   1    6    6     2     3    5.7629E+01  2.9940E-01   5.7329E+01  0.000E+00  0.000E+00  0.000E+00  1.06378E+03  1.990E+00  1.200E+01  6.000E-02  1.663E+00
   1    7    6     2     4    5.7329E+01  2.9903E-01   5.7030E+01  0.000E+00  0.000E+00  0.000E+00  1.05906E+03  1.984E+00  1.200E+01  6.000E-02  1.661E+00
   1    8    6     2     5    5.7030E+01  2.9865E-01   5.6732E+01  0.000E+00  0.000E+00  0.000E+00  1.05434E+03  1.978E+00  1.200E+01  6.000E-02  1.659E+00
   1    3    5     3     1    2.0000E+00  2.8252E-01   1.7175E+00  0.000E+00  0.000E+00  0.000E+00  1.07555E+03  1.909E+00  9.636E+00  7.227E-02  1.955E+00
   1    3    6     3     2    1.7175E+00  2.4905E-01   1.4684E+00  0.000E+00  0.000E+00  0.000E+00  1.07264E+03  1.727E+00  8.909E+00  6.682E-02  1.864E+00
   1    3    7     3     3    1.4684E+00  1.9718E-01   1.2712E+00  0.000E+00  0.000E+00  0.000E+00  1.06987E+03  1.555E+00  8.218E+00  5.547E-02  1.777E+00
   1    4    8     3     4    1.2712E+00  2.2567E-01   1.0456E+00  0.000E+00  0.000E+00  0.000E+00  1.06682E+03  1.364E+00  7.455E+00  6.709E-02  1.682E+00
   1    5    8     3     5    1.0456E+00  1.5790E-01   8.8768E-01  0.000E+00  0.000E+00  0.000E+00  1.06362E+03  1.164E+00  6.655E+00  4.991E-02  1.582E+00
   1    6    8     3     6    8.8768E-01  5.5980E-02   8.3170E-01  0.000E+00  0.000E+00  0.000E+00  1.06158E+03  1.036E+00  6.145E+00  1.844E-02  1.518E+00
   1    5   10     4     1    1.0000E+01  9.0919E-02   9.9091E+00  0.000E+00  0.000E+00  0.000E+00  1.07836E+03  6.368E-01  1.000E+01  2.500E-02  1.212E+00
   1    5    9     4     2    9.9091E+00  1.8158E-01   9.7275E+00  0.000E+00  0.000E+00  0.000E+00  1.07154E+03  6.315E-01  1.000E+01  5.000E-02  1.211E+00
   1    6    8     4     3    9.7275E+00  1.2689E-01   9.6006E+00  0.000E+00  0.000E+00  0.000E+00  1.06381E+03  6.256E-01  1.000E+01  3.500E-02  1.209E+00
   1    6    8     5     1    1.0432E+01  2.2686E-01   1.0205E+01  0.000E+00  0.000E+00  0.000E+00  1.05868E+03  6.790E-01  1.542E+01  6.166E-02  1.226E+00
   1    7    7     5     2    1.0205E+01  2.7894E-01   9.9265E+00  0.000E+00  0.000E+00  0.000E+00  1.05417E+03  6.732E-01  1.519E+01  7.594E-02  1.224E+00
   1    8    7     5     3    9.9265E+00  1.9221E-01   9.7343E+00  0.000E+00  0.000E+00  0.000E+00  1.04992E+03  6.676E-01  1.497E+01  5.241E-02  1.223E+00
   1    8    6     5     4    9.7343E+00  1.3577E-01   9.5985E+00  0.000E+00  0.000E+00  0.000E+00  1.04691E+03  6.637E-01  1.482E+01  3.706E-02  1.221E+00
   1    9    6     6     1    2.1390E+01  2.4649E-01   2.1144E+01  0.000E+00  0.000E+00  0.000E+00  1.04384E+03  1.108E+00  1.200E+01  6.000E-02  1.369E+00
   1   10    7     6     2    2.1144E+01  2.4603E-01   2.0898E+01  0.000E+00  0.000E+00  0.000E+00  1.03928E+03  1.100E+00  1.200E+01  6.000E-02  1.367E+00
   1   11    7     6     3    2.0898E+01  2.4556E-01   2.0652E+01  0.000E+00  0.000E+00  0.000E+00  1.03473E+03  1.093E+00  1.200E+01  6.000E-02  1.364E+00
   1   12    7     6     4    2.0652E+01  2.4510E-01   2.0407E+01  0.000E+00  0.000E+00  0.000E+00  1.03018E+03  1.085E+00  1.200E+01  6.000E-02  1.362E+00
   1   13    7     6     5    2.0407E+01 -3.9702E-02   2.0447E+01  0.000E+00  0.000E+00  0.000E+00  1.02699E+03  1.082E+00  1.200E+01  2.400E-01 -5.514E-02
   1   14    9     7     1    1.5000E+02  1.3359E+00   1.4866E+02  0.000E+00  0.000E+00  0.000E+00  1.03987E+03  2.288E+00  5.529E+01  5.593E-01  7.962E-01
   1   13    8     7     2    1.4866E+02  1.8199E+00   1.4684E+02  0.000E+00  0.000E+00  0.000E+00  1.03478E+03  2.279E+00  5.526E+01  6.148E-01  9.868E-01
   1   13    7     7     3    1.4684E+02  1.4151E+00   1.4543E+02  0.000E+00  0.000E+00  0.000E+00  1.02969E+03  2.271E+00  5.522E+01  5.585E-01  8.446E-01
   1   13    6     8     1    1.6588E+02  8.2076E-01   1.6505E+02  0.000E+00  0.000E+00  0.000E+00  1.02480E+03  2.922E+00  4.238E+01  4.318E-01  6.336E-01
   1   13    5     8     2    1.6505E+02  7.7791E-02   1.6498E+02  0.000E+00  0.000E+00  0.000E+00  1.01854E+03  2.919E+00  4.233E+01  4.314E-01  6.011E-02
   1   13    4     8     3    1.6498E+02 -3.0361E+00   1.6801E+02  0.000E+00  0.000E+00  0.000E+00  1.01230E+03  2.929E+00  4.247E+01  4.328E+00 -2.338E-01
   1   13    3     8     4    1.6801E+02 -4.0838E+00   1.7210E+02  0.000E+00  0.000E+00  0.000E+00  1.00608E+03  2.953E+00  4.281E+01  4.363E+00 -3.120E-01
   1   13    2     8     5    1.7210E+02 -3.1379E+00   1.7523E+02  0.000E+00  0.000E+00  0.000E+00  9.99851E+02  2.976E+00  4.315E+01  4.397E+00 -2.379E-01
   1   13    1     8     6    1.7523E+02 -2.3216E+00   1.7756E+02  0.000E+00  0.000E+00  0.000E+00  9.94868E+02  2.993E+00  4.340E+01  2.654E+00 -2.916E-01
   1    8    6     9     1    4.4940E+01  0.0000E+00   4.4940E+01  0.000E+00  0.000E+00  0.000E+00  1.08433E+03  5.583E+00  4.000E+00  0.000E+00  2.861E+00
   1    8    5     9     2    4.4940E+01  0.0000E+00   4.4940E+01  0.000E+00  0.000E+00  0.000E+00  1.08383E+03  5.583E+00  4.000E+00  0.000E+00  2.861E+00



 UBDSV3 SAVING "           GW ET" ON UNIT  61 AT TIME STEP 15, STRESS PERIOD   7
 UBDSV3 SAVING "    UZF RECHARGE" ON UNIT  61 AT TIME STEP 15, STRESS PERIOD   7
 UBDSV3 SAVING " SURFACE LEAKAGE" ON UNIT  61 AT TIME STEP 15, STRESS PERIOD   7
 UBDSV3 SAVING "       HORT+DUNN" ON UNIT  61 AT TIME STEP 15, STRESS PERIOD   7
 UBDSV3 SAVING "  STORAGE CHANGE" ON UNIT  61 AT TIME STEP 15, STRESS PERIOD   7


UNSATURATED ZONE PACKAGE VOLUMETRIC BUDGET FOR  TIME STEP    15 STRESS PERIOD    7
  ------------------------------------------------------------------------------



     CUMULATIVE VOLUMES      L**3       RATES FOR THIS TIME STEP      L**3/T
     ------------------                 ------------------------

           IN:                                      IN:
           ---                                      ---
        INFILTRATION =    73281779.4294          INFILTRATION =          45.7884

          OUT:                                     OUT:
          ----                                     ----
              UZF ET =    71154342.4376                UZF ET =          23.3175
        UZF RECHARGE =       73224.0000          UZF RECHARGE =       0.0000E+00

            IN - OUT =     2054212.9918              IN - OUT =          22.4709

          STORAGE:                                 STORAGE:
          --------                                 --------
      STORAGE CHANGE =     2054190.9167        STORAGE CHANGE =          22.4709

 PERCENT DISCREPANCY IS DIFFERENCE BETWEEN IN-OUT MINUS CHANGE IN STORAGE
 DIVIDED BY THE AVERAGE OF IN AND OUT TIMES 100

 PERCENT DISCREPANCY =           0.00     PERCENT DISCREPANCY =           0.00






 

            AG WELLS      PERIOD    7   STEP  15
 AG WELL      1   LAYER   1   ROW     6   COL     4   RATE     0.00000    
 AG WELL      2   LAYER   1   ROW     6   COL     5   RATE     0.00000    
 AG WELL      3   LAYER   1   ROW     7   COL     4   RATE     0.00000    
 AG WELL      4   LAYER   1   ROW     7   COL     5   RATE     0.00000    
 AG WELL      5   LAYER   1   ROW     8   COL     4   RATE     0.00000    
 AG WELL      6   LAYER   1   ROW     8   COL     5   RATE     0.00000    
 
 

   DIVERSION SEGMENTS     PERIOD    7   STEP  15
 SEGMENT      9   RATE     44.9400    
 
 

        SW IRRIGATION     PERIOD    7   STEP  15
 SEGMENT      9   ROW     6   COL     4   RATE     7.49015    
 SEGMENT      9   ROW     6   COL     5   RATE     7.49015    
 SEGMENT      9   ROW     7   COL     4   RATE     7.49015    
 SEGMENT      9   ROW     7   COL     5   RATE     7.49015    
 SEGMENT      9   ROW     8   COL     4   RATE     7.49015    
 SEGMENT      9   ROW     8   COL     5   RATE     7.49015    
 
 

        GW IRRIGATION     PERIOD    7   STEP  15
 AG WELL      1   ROW     6   COL     4   RATE     0.00000    
 AG WELL      2   ROW     6   COL     5   RATE     0.00000    
 AG WELL      3   ROW     7   COL     4   RATE     0.00000    
 AG WELL      4   ROW     7   COL     5   RATE     0.00000    
 AG WELL      5   ROW     8   COL     4   RATE     0.00000    
 AG WELL      6   ROW     8   COL     5   RATE     0.00000    
 
1
  VOLUMETRIC BUDGET FOR AGRICULTURAL FIELDS AT  END OF TIME STEP   15, STRESS PERIOD   7
  ------------------------------------------------------------------------------

     CUMULATIVE VOLUMES      L**3       RATES FOR THIS TIME STEP      L**3/T
     ------------------                 ------------------------

           IN:                                      IN:
           ---                                      ---
               AG WELLS  =           0.0000                 AG WELLS  =           0.0000
      DIVERSION SEGMENTS =    60948248.0000        DIVERSION SEGMENTS =          44.9400
           GW IRRIGATION =           0.0000             GW IRRIGATION =           0.0000
           SW IRRIGATION =           0.0000             SW IRRIGATION =           0.0000
        SYSTEM LOSSES GW =           0.0000          SYSTEM LOSSES GW =           0.0000
        SYSTEM LOSSES SW =           0.0000          SYSTEM LOSSES SW =           0.0000

                TOTAL IN =    60948248.0000                  TOTAL IN =          44.9400

          OUT:                                     OUT:
          ----                                     ----
               AG WELLS  =           0.0000                 AG WELLS  =           0.0000
      DIVERSION SEGMENTS =           0.0000        DIVERSION SEGMENTS =           0.0000
           GW IRRIGATION =           0.0000             GW IRRIGATION =           0.0000
           SW IRRIGATION =    60949472.0000             SW IRRIGATION =          44.9409
        SYSTEM LOSSES GW =           0.0000          SYSTEM LOSSES GW =           0.0000
        SYSTEM LOSSES SW =           0.0000          SYSTEM LOSSES SW =           0.0000

               TOTAL OUT =    60949472.0000                 TOTAL OUT =          44.9409

                IN - OUT =       -1224.0000                  IN - OUT =      -8.9645E-04

     PERCENT DISCREPANCY =          -0.00         PERCENT DISCREPANCY =          -0.00



1
  VOLUMETRIC BUDGET FOR ENTIRE MODEL AT END OF TIME STEP   15, STRESS PERIOD   7
  ------------------------------------------------------------------------------

     CUMULATIVE VOLUMES      L**3       RATES FOR THIS TIME STEP      L**3/T
     ------------------                 ------------------------

           IN:                                      IN:
           ---                                      ---
             STORAGE     =    11963171.0000               STORAGE     =           2.5034
       CONSTANT HEAD     =           0.0000         CONSTANT HEAD     =           0.0000
     HEAD DEP BOUNDS     =     4157569.2500       HEAD DEP BOUNDS     =           0.2858
      STREAM LEAKAGE     =   177691920.0000        STREAM LEAKAGE     =          12.3727
        UZF RECHARGE     =       73223.9531          UZF RECHARGE     =           0.0000
               GW ET     =           0.0000                 GW ET     =           0.0000
     SURFACE LEAKAGE     =           0.0000       SURFACE LEAKAGE     =           0.0000
           AG WELLS      =           0.0000             AG WELLS      =           0.0000

                TOTAL IN =   193885872.0000                  TOTAL IN =          15.1619

          OUT:                                     OUT:
          ----                                     ----
             STORAGE     =    35350648.0000               STORAGE     =           2.1038
       CONSTANT HEAD     =           0.0000         CONSTANT HEAD     =           0.0000
     HEAD DEP BOUNDS     =     4246212.0000       HEAD DEP BOUNDS     =           0.2942
      STREAM LEAKAGE     =   152967648.0000        STREAM LEAKAGE     =          12.6191
        UZF RECHARGE     =           0.0000          UZF RECHARGE     =           0.0000
               GW ET     =     1326067.7500                 GW ET     =           0.1447
     SURFACE LEAKAGE     =           0.0000       SURFACE LEAKAGE     =           0.0000
           AG WELLS      =           0.0000             AG WELLS      =           0.0000

               TOTAL OUT =   193890576.0000                 TOTAL OUT =          15.1617

                IN - OUT =       -4704.0000                  IN - OUT =       1.4877E-04

     PERCENT DISCREPANCY =          -0.00         PERCENT DISCREPANCY =           0.00






         TIME SUMMARY AT END OF TIME STEP   15 IN STRESS PERIOD    7
                    SECONDS     MINUTES      HOURS       DAYS        YEARS
                    -----------------------------------------------------------
   TIME STEP LENGTH  87667.      1461.1      24.352      1.0147     2.77799E-03
 STRESS PERIOD TIME 1.31500E+06  21917.      365.28      15.220     4.16698E-02
         TOTAL TIME 1.45514E+07 2.42524E+05  4042.1      168.42     0.46111    
1
 
 SOLVING FOR HEAD 
                                                   Max.-Head-Change                         Max.-Flux-Residual
  Residual-Control   Outer-Iter.   Inner-Iter.     Column Row Layer    Maximum-Head-Change  Column Row Layer    Maximum-Flux-Residual          L2-NORM 
          0                 1           2             4   13     1       0.7840690335E-02       4   13    1         0.5055999103E+00      0.9487739160E+00
          0                 2           2             7   13     1      -0.3984492629E-02       7   13    1        -0.2210084046E+00      0.2363762768E+00
          0                 3           2             7   13     1       0.2712539147E-03       7   13    1         0.1546638835E-01      0.1647070520E-01
          0                 4           1             7   13     1      -0.1079052569E-04       7   13    1        -0.6324055896E-03      0.6693883056E-03

    ------------------------------------------------
       NWT REQUIRED            4 OUTER ITERATIONS 
       AND A TOTAL OF          7 INNER ITERATIONS.
    ------------------------------------------------

 NO OUTPUT CONTROL FOR STRESS PERIOD    7   TIME STEP   16
 
 SOLVING FOR HEAD 
                                                   Max.-Head-Change                         Max.-Flux-Residual
  Residual-Control   Outer-Iter.   Inner-Iter.     Column Row Layer    Maximum-Head-Change  Column Row Layer    Maximum-Flux-Residual          L2-NORM 
          0                 1           2             4   13     1       0.6380519181E-02       4   13    1         0.4111625960E+00      0.8266430943E+00
          0                 2           2             4    7     1      -0.6975334345E-01       5    6    1        -0.3747674073E+01      0.9225486737E+01
          0                 3           2             4    7     1       0.7258253984E-01       5    6    1         0.4007336033E+01      0.9846202514E+01
          0                 4           2             4    7     1      -0.2888411364E-02       4    6    1        -0.1647681314E+00      0.4069784275E+00
          0                 5           1             7   13     1       0.4261395264E-04       7   13    1         0.2443735091E-02      0.6039444327E-02

    ------------------------------------------------
       NWT REQUIRED            5 OUTER ITERATIONS 
       AND A TOTAL OF          9 INNER ITERATIONS.
    ------------------------------------------------

 NO OUTPUT CONTROL FOR STRESS PERIOD    7   TIME STEP   17
 
 SOLVING FOR HEAD 
                                                   Max.-Head-Change                         Max.-Flux-Residual
  Residual-Control   Outer-Iter.   Inner-Iter.     Column Row Layer    Maximum-Head-Change  Column Row Layer    Maximum-Flux-Residual          L2-NORM 
          0                 1           2             4   13     1       0.8036786625E-02       4   13    1         0.5182025827E+00      0.9709151849E+00
          0                 2           2             7   13     1      -0.3983147486E-02       7   13    1        -0.2209324481E+00      0.2370551324E+00
          0                 3           2             7   13     1       0.2711610966E-03       7   13    1         0.1546100527E-01      0.1651322132E-01
          0                 4           1             7   13     1      -0.1078479394E-04       7   13    1        -0.6320664936E-03      0.6705971674E-03

    ------------------------------------------------
       NWT REQUIRED            4 OUTER ITERATIONS 
       AND A TOTAL OF          7 INNER ITERATIONS.
    ------------------------------------------------

 NO OUTPUT CONTROL FOR STRESS PERIOD    7   TIME STEP   18
 
 SOLVING FOR HEAD 
                                                   Max.-Head-Change                         Max.-Flux-Residual
  Residual-Control   Outer-Iter.   Inner-Iter.     Column Row Layer    Maximum-Head-Change  Column Row Layer    Maximum-Flux-Residual          L2-NORM 
          0                 1           2             4   13     1       0.6539219270E-02       4   13    1         0.4213542195E+00      0.8456658677E+00
          0                 2           2             4    7     1      -0.6975377880E-01       5    6    1        -0.3747673222E+01      0.9225820092E+01
          0                 3           2             4    7     1       0.7258257412E-01       5    6    1         0.4007335974E+01      0.9846243715E+01
          0                 4           2             4    7     1      -0.2888417367E-02       4    6    1        -0.1647885999E+00      0.4069918510E+00
          0                 5           1             7   13     1       0.4266781385E-04       7   13    1         0.2446816457E-02      0.6034556232E-02

    ------------------------------------------------
       NWT REQUIRED            5 OUTER ITERATIONS 
       AND A TOTAL OF          9 INNER ITERATIONS.
    ------------------------------------------------

 NO OUTPUT CONTROL FOR STRESS PERIOD    7   TIME STEP   19
 
 SOLVING FOR HEAD 
                                                   Max.-Head-Change                         Max.-Flux-Residual
  Residual-Control   Outer-Iter.   Inner-Iter.     Column Row Layer    Maximum-Head-Change  Column Row Layer    Maximum-Flux-Residual          L2-NORM 
          0                 1           2             4   13     1       0.8166142883E-02       4   13    1         0.5265024187E+00      0.9876816105E+00
          0                 2           2             7   13     1      -0.3981916371E-02       7   13    1        -0.2208629493E+00      0.2375674576E+00
          0                 3           2             7   13     1       0.2710787923E-03       7   13    1         0.1545623152E-01      0.1654479906E-01
          0                 4           1             7   13     1      -0.1078162770E-04       7   13    1        -0.6318873793E-03      0.6711877201E-03

    ------------------------------------------------
       NWT REQUIRED            4 OUTER ITERATIONS 
       AND A TOTAL OF          7 INNER ITERATIONS.
    ------------------------------------------------

 NO OUTPUT CONTROL FOR STRESS PERIOD    7   TIME STEP   20
 
 SOLVING FOR HEAD 
                                                   Max.-Head-Change                         Max.-Flux-Residual
  Residual-Control   Outer-Iter.   Inner-Iter.     Column Row Layer    Maximum-Head-Change  Column Row Layer    Maximum-Flux-Residual          L2-NORM 
          0                 1           2             4   13     1       0.6644107675E-02       4   13    1         0.4280775391E+00      0.8603422661E+00
          0                 2           2             4    7     1      -0.6975422139E-01       5    6    1        -0.3747672692E+01      0.9226085944E+01
          0                 3           2             4    7     1       0.7258260889E-01       5    6    1         0.4007335937E+01      0.9846279601E+01
          0                 4           2             4    7     1      -0.2888423382E-02       4    6    1        -0.1648090324E+00      0.4070070533E+00
          0                 5           1             7   13     1       0.4272019275E-04       7   13    1         0.2449819120E-02      0.6036367544E-02

    ------------------------------------------------
       NWT REQUIRED            5 OUTER ITERATIONS 
       AND A TOTAL OF          9 INNER ITERATIONS.
    ------------------------------------------------

 NO OUTPUT CONTROL FOR STRESS PERIOD    7   TIME STEP   21
 
 SOLVING FOR HEAD 
                                                   Max.-Head-Change                         Max.-Flux-Residual
  Residual-Control   Outer-Iter.   Inner-Iter.     Column Row Layer    Maximum-Head-Change  Column Row Layer    Maximum-Flux-Residual          L2-NORM 
          0                 1           2             4   13     1       0.8251719747E-02       4   13    1         0.5319816690E+00      0.1000576471E+01
          0                 2           2             7   13     1      -0.3980764836E-02       7   13    1        -0.2207980071E+00      0.2379551136E+00
          0                 3           2             7   13     1       0.2709992727E-03       7   13    1         0.1545162064E-01      0.1656865424E-01
          0                 4           1             7   13     1      -0.1077817273E-04       7   13    1        -0.6316787649E-03      0.6728026484E-03

    ------------------------------------------------
       NWT REQUIRED            4 OUTER ITERATIONS 
       AND A TOTAL OF          7 INNER ITERATIONS.
    ------------------------------------------------

 NO OUTPUT CONTROL FOR STRESS PERIOD    7   TIME STEP   22
 
 SOLVING FOR HEAD 
                                                   Max.-Head-Change                         Max.-Flux-Residual
  Residual-Control   Outer-Iter.   Inner-Iter.     Column Row Layer    Maximum-Head-Change  Column Row Layer    Maximum-Flux-Residual          L2-NORM 
          0                 1           2             4   13     1       0.6713654844E-02       4   13    1         0.4325246274E+00      0.8718280158E+00
          0                 2           2             4    7     1      -0.6975464597E-01       5    6    1        -0.3747670808E+01      0.9226302255E+01
          0                 3           2             4    7     1       0.7258264239E-01       5    6    1         0.4007335805E+01      0.9846311329E+01
          0                 4           2             4    7     1      -0.2888429345E-02       4    6    1        -0.1648294606E+00      0.4070216412E+00
          0                 5           1             7   13     1       0.4277045552E-04       7   13    1         0.2452697350E-02      0.6037543965E-02

    ------------------------------------------------
       NWT REQUIRED            5 OUTER ITERATIONS 
       AND A TOTAL OF          9 INNER ITERATIONS.
    ------------------------------------------------

 NO OUTPUT CONTROL FOR STRESS PERIOD    7   TIME STEP   23
 
 SOLVING FOR HEAD 
                                                   Max.-Head-Change                         Max.-Flux-Residual
  Residual-Control   Outer-Iter.   Inner-Iter.     Column Row Layer    Maximum-Head-Change  Column Row Layer    Maximum-Flux-Residual          L2-NORM 
          0                 1           2             4   13     1       0.8308666794E-02       4   13    1         0.5356178882E+00      0.1010660603E+01
          0                 2           2             7   13     1      -0.3979720030E-02       7   13    1        -0.2207390941E+00      0.2382540237E+00
          0                 3           2             7   13     1       0.2709297885E-03       7   13    1         0.1544759417E-01      0.1658701090E-01
          0                 4           1             7   13     1      -0.1077653768E-04       7   13    1        -0.6315804385E-03      0.6730415325E-03

    ------------------------------------------------
       NWT REQUIRED            4 OUTER ITERATIONS 
       AND A TOTAL OF          7 INNER ITERATIONS.
    ------------------------------------------------

 NO OUTPUT CONTROL FOR STRESS PERIOD    7   TIME STEP   24
 
 SOLVING FOR HEAD 
                                                   Max.-Head-Change                         Max.-Flux-Residual
  Residual-Control   Outer-Iter.   Inner-Iter.     Column Row Layer    Maximum-Head-Change  Column Row Layer    Maximum-Flux-Residual          L2-NORM 
          0                 1           2             2   13     1       0.6852257110E-02       4   13    1         0.4354845026E+00      0.8809426007E+00
          0                 2           2             4    7     1      -0.6975505330E-01       5    6    1        -0.3747671150E+01      0.9226480890E+01
          0                 3           2             4    7     1       0.7258267468E-01       5    6    1         0.4007335829E+01      0.9846339552E+01
          0                 4           2             4    7     1      -0.2888435249E-02       4    6    1        -0.1648498302E+00      0.4070357358E+00
          0                 5           1             7   13     1       0.4281890510E-04       7   13    1         0.2455468481E-02      0.6039983868E-02

    ------------------------------------------------
       NWT REQUIRED            5 OUTER ITERATIONS 
       AND A TOTAL OF          9 INNER ITERATIONS.
    ------------------------------------------------

 NO OUTPUT CONTROL FOR STRESS PERIOD    7   TIME STEP   25
 
 SOLVING FOR HEAD 
                                                   Max.-Head-Change                         Max.-Flux-Residual
  Residual-Control   Outer-Iter.   Inner-Iter.     Column Row Layer    Maximum-Head-Change  Column Row Layer    Maximum-Flux-Residual          L2-NORM 
          0                 1           2             4   13     1       0.8346876032E-02       4   13    1         0.5380490940E+00      0.1018658451E+01
          0                 2           2             7   13     1      -0.3978725014E-02       7   13    1        -0.2206830419E+00      0.2384814218E+00
          0                 3           2             7   13     1       0.2708673177E-03       7   13    1         0.1544396935E-01      0.1659848102E-01
          0                 4           1             7   13     1      -0.1077905944E-04       7   13    1        -0.6317242896E-03      0.6736082338E-03

    ------------------------------------------------
       NWT REQUIRED            4 OUTER ITERATIONS 
       AND A TOTAL OF          7 INNER ITERATIONS.
    ------------------------------------------------

 NO OUTPUT CONTROL FOR STRESS PERIOD    7   TIME STEP   26
 
 SOLVING FOR HEAD 
                                                   Max.-Head-Change                         Max.-Flux-Residual
  Residual-Control   Outer-Iter.   Inner-Iter.     Column Row Layer    Maximum-Head-Change  Column Row Layer    Maximum-Flux-Residual          L2-NORM 
          0                 1           2             2   13     1       0.7030790199E-02       4   13    1         0.4374668685E+00      0.8882736794E+00
          0                 2           2             4    7     1      -0.6975544422E-01       5    6    1        -0.3747671763E+01      0.9226630626E+01
          0                 3           2             4    7     1       0.7258270581E-01       5    6    1         0.4007335872E+01      0.9846364701E+01
          0                 4           2             4    7     1      -0.2888441093E-02       4    6    1        -0.1648701403E+00      0.4070491734E+00
          0                 5           1             7   13     1       0.4286820719E-04       7   13    1         0.2458295876E-02      0.6040897639E-02

    ------------------------------------------------
       NWT REQUIRED            5 OUTER ITERATIONS 
       AND A TOTAL OF          9 INNER ITERATIONS.
    ------------------------------------------------

 NO OUTPUT CONTROL FOR STRESS PERIOD    7   TIME STEP   27
 
 SOLVING FOR HEAD 
                                                   Max.-Head-Change                         Max.-Flux-Residual
  Residual-Control   Outer-Iter.   Inner-Iter.     Column Row Layer    Maximum-Head-Change  Column Row Layer    Maximum-Flux-Residual          L2-NORM 
          0                 1           2             4   13     1       0.8372692506E-02       4   13    1         0.5396844169E+00      0.1025082115E+01
          0                 2           2             7   13     1      -0.3977811227E-02       7   13    1        -0.2206315897E+00      0.2386630810E+00
          0                 3           2             7   13     1       0.2707983911E-03       7   13    1         0.1543999130E-01      0.1661122171E-01
          0                 4           1             7   13     1      -0.1077079259E-04       7   13    1        -0.6312387234E-03      0.6739057328E-03

    ------------------------------------------------
       NWT REQUIRED            4 OUTER ITERATIONS 
       AND A TOTAL OF          7 INNER ITERATIONS.
    ------------------------------------------------

 NO OUTPUT CONTROL FOR STRESS PERIOD    7   TIME STEP   28
 
 SOLVING FOR HEAD 
                                                   Max.-Head-Change                         Max.-Flux-Residual
  Residual-Control   Outer-Iter.   Inner-Iter.     Column Row Layer    Maximum-Head-Change  Column Row Layer    Maximum-Flux-Residual          L2-NORM 
          0                 1           2             2   13     1       0.7180844836E-02       4   13    1         0.4388107833E+00      0.8942249758E+00
          0                 2           2             4    7     1      -0.6975581945E-01       5    6    1        -0.3747671120E+01      0.9226756868E+01
          0                 3           2             4    7     1       0.7258273582E-01       5    6    1         0.4007335827E+01      0.9846387682E+01
          0                 4           2             4    7     1      -0.2888446877E-02       4    6    1        -0.1648903713E+00      0.4070626297E+00
          0                 5           1             7   13     1       0.4291442277E-04       7   13    1         0.2460941458E-02      0.6042049043E-02

    ------------------------------------------------
       NWT REQUIRED            5 OUTER ITERATIONS 
       AND A TOTAL OF          9 INNER ITERATIONS.
    ------------------------------------------------

 NO OUTPUT CONTROL FOR STRESS PERIOD    7   TIME STEP   29
 
 SOLVING FOR HEAD 
                                                   Max.-Head-Change                         Max.-Flux-Residual
  Residual-Control   Outer-Iter.   Inner-Iter.     Column Row Layer    Maximum-Head-Change  Column Row Layer    Maximum-Flux-Residual          L2-NORM 
          0                 1           2             4   13     1       0.6839205325E-02       4   13    1         0.4406375122E+00      0.8630668503E+00
          0                 2           2             7   13     1      -0.3592029636E-02       7   13    1        -0.1992430354E+00      0.2133412239E+00
          0                 3           2             7   13     1       0.2445349183E-03       7   13    1         0.1394316379E-01      0.1486329503E-01
          0                 4           1             7   13     1      -0.9725278322E-05       7   13    1        -0.5699861763E-03      0.6038376731E-03

    ------------------------------------------------
       NWT REQUIRED            4 OUTER ITERATIONS 
       AND A TOTAL OF          7 INNER ITERATIONS.
    ------------------------------------------------

 NO OUTPUT CONTROL FOR STRESS PERIOD    7   TIME STEP   30



 STREAM LISTING     PERIOD      7   STEP       30

 LAYER ROW COL. STREAM  RCH.  FLOW INTO     FLOW TO   FLOW OUT OF   OVRLND.     DIRECT     STREAM       STREAM     STREAM     STREAM   STREAMBED  STREAMBED
                SEG.NO.  NO.  STRM. RCH.    AQUIFER    STRM. RCH.    RUNOFF     PRECIP       ET          HEAD       DEPTH      WIDTH   CONDCTNC.   GRADIENT

   1    1    1     1     1    5.7704E+01  3.6391E-01   5.7340E+01  0.000E+00  0.000E+00  0.000E+00  1.09454E+03  1.497E+00  1.798E+01  8.092E-02  1.499E+00
   1    2    2     1     2    5.7340E+01  5.6353E-01   5.6777E+01  0.000E+00  0.000E+00  0.000E+00  1.08955E+03  1.491E+00  1.792E+01  1.255E-01  1.497E+00
   1    3    3     1     3    5.6777E+01  4.8055E-01   5.6296E+01  0.000E+00  0.000E+00  0.000E+00  1.08390E+03  1.485E+00  1.786E+01  1.071E-01  1.495E+00
   1    3    4     1     4    5.6296E+01  4.4247E-01   5.5854E+01  0.000E+00  0.000E+00  0.000E+00  1.07889E+03  1.479E+00  1.780E+01  9.879E-02  1.493E+00
   1    4    5     2     1    5.3854E+01  3.8295E-01   5.3471E+01  0.000E+00  0.000E+00  0.000E+00  1.07384E+03  1.910E+00  1.200E+01  7.800E-02  1.637E+00
   1    5    6     2     2    5.3471E+01  2.9414E-01   5.3177E+01  0.000E+00  0.000E+00  0.000E+00  1.06841E+03  1.902E+00  1.200E+01  6.000E-02  1.634E+00
   1    6    6     2     3    5.3177E+01  2.9376E-01   5.2883E+01  0.000E+00  0.000E+00  0.000E+00  1.06369E+03  1.896E+00  1.200E+01  6.000E-02  1.632E+00
   1    7    6     2     4    5.2883E+01  2.9339E-01   5.2590E+01  0.000E+00  0.000E+00  0.000E+00  1.05897E+03  1.890E+00  1.200E+01  6.000E-02  1.630E+00
   1    8    6     2     5    5.2590E+01  2.9301E-01   5.2297E+01  0.000E+00  0.000E+00  0.000E+00  1.05424E+03  1.883E+00  1.200E+01  6.000E-02  1.628E+00
   1    3    5     3     1    2.0000E+00  2.8252E-01   1.7175E+00  0.000E+00  0.000E+00  0.000E+00  1.07555E+03  1.909E+00  9.636E+00  7.227E-02  1.955E+00
   1    3    6     3     2    1.7175E+00  2.4905E-01   1.4684E+00  0.000E+00  0.000E+00  0.000E+00  1.07264E+03  1.727E+00  8.909E+00  6.682E-02  1.864E+00
   1    3    7     3     3    1.4684E+00  1.9718E-01   1.2712E+00  0.000E+00  0.000E+00  0.000E+00  1.06987E+03  1.555E+00  8.218E+00  5.547E-02  1.777E+00
   1    4    8     3     4    1.2712E+00  2.2567E-01   1.0456E+00  0.000E+00  0.000E+00  0.000E+00  1.06682E+03  1.364E+00  7.455E+00  6.709E-02  1.682E+00
   1    5    8     3     5    1.0456E+00  1.5790E-01   8.8768E-01  0.000E+00  0.000E+00  0.000E+00  1.06362E+03  1.164E+00  6.655E+00  4.991E-02  1.582E+00
   1    6    8     3     6    8.8768E-01  5.5980E-02   8.3170E-01  0.000E+00  0.000E+00  0.000E+00  1.06158E+03  1.036E+00  6.145E+00  1.844E-02  1.518E+00
   1    5   10     4     1    1.0000E+01  9.0919E-02   9.9091E+00  0.000E+00  0.000E+00  0.000E+00  1.07836E+03  6.368E-01  1.000E+01  2.500E-02  1.212E+00
   1    5    9     4     2    9.9091E+00  1.8158E-01   9.7275E+00  0.000E+00  0.000E+00  0.000E+00  1.07154E+03  6.315E-01  1.000E+01  5.000E-02  1.211E+00
   1    6    8     4     3    9.7275E+00  1.2689E-01   9.6006E+00  0.000E+00  0.000E+00  0.000E+00  1.06381E+03  6.256E-01  1.000E+01  3.500E-02  1.209E+00
   1    6    8     5     1    1.0432E+01  2.2686E-01   1.0205E+01  0.000E+00  0.000E+00  0.000E+00  1.05868E+03  6.790E-01  1.542E+01  6.166E-02  1.226E+00
   1    7    7     5     2    1.0205E+01  2.7894E-01   9.9265E+00  0.000E+00  0.000E+00  0.000E+00  1.05417E+03  6.732E-01  1.519E+01  7.594E-02  1.224E+00
   1    8    7     5     3    9.9265E+00  1.9221E-01   9.7343E+00  0.000E+00  0.000E+00  0.000E+00  1.04992E+03  6.676E-01  1.497E+01  5.241E-02  1.223E+00
   1    8    6     5     4    9.7343E+00  1.3577E-01   9.5985E+00  0.000E+00  0.000E+00  0.000E+00  1.04691E+03  6.637E-01  1.482E+01  3.706E-02  1.221E+00
   1    9    6     6     1    6.1895E+01  3.0603E-01   6.1589E+01  0.000E+00  0.000E+00  0.000E+00  1.04483E+03  2.100E+00  1.200E+01  6.000E-02  1.700E+00
   1   10    7     6     2    6.1589E+01  3.0565E-01   6.1283E+01  0.000E+00  0.000E+00  0.000E+00  1.04028E+03  2.094E+00  1.200E+01  6.000E-02  1.698E+00
   1   11    7     6     3    6.1283E+01  3.0528E-01   6.0978E+01  0.000E+00  0.000E+00  0.000E+00  1.03572E+03  2.088E+00  1.200E+01  6.000E-02  1.696E+00
   1   12    7     6     4    6.0978E+01  3.0490E-01   6.0673E+01  0.000E+00  0.000E+00  0.000E+00  1.03117E+03  2.082E+00  1.200E+01  6.000E-02  1.694E+00
   1   13    7     6     5    6.0673E+01  1.9904E-02   6.0653E+01  0.000E+00  0.000E+00  0.000E+00  1.02799E+03  2.078E+00  1.200E+01  2.400E-02  2.765E-01
   1   14    9     7     1    1.5000E+02  1.3359E+00   1.4866E+02  0.000E+00  0.000E+00  0.000E+00  1.03987E+03  2.288E+00  5.529E+01  5.593E-01  7.962E-01
   1   13    8     7     2    1.4866E+02  1.8187E+00   1.4685E+02  0.000E+00  0.000E+00  0.000E+00  1.03478E+03  2.279E+00  5.526E+01  6.148E-01  9.861E-01
   1   13    7     7     3    1.4685E+02  1.4140E+00   1.4543E+02  0.000E+00  0.000E+00  0.000E+00  1.02969E+03  2.271E+00  5.522E+01  5.585E-01  8.440E-01
   1   13    6     8     1    2.0608E+02  1.0071E+00   2.0508E+02  0.000E+00  0.000E+00  0.000E+00  1.02505E+03  3.170E+00  4.597E+01  4.684E-01  7.166E-01
   1   13    5     8     2    2.0508E+02  2.0159E-01   2.0488E+02  0.000E+00  0.000E+00  0.000E+00  1.01879E+03  3.167E+00  4.592E+01  4.679E-01  1.436E-01
   1   13    4     8     3    2.0488E+02 -2.1646E+00   2.0704E+02  0.000E+00  0.000E+00  0.000E+00  1.01255E+03  3.172E+00  4.600E+01  4.688E+00 -1.539E-01
   1   13    3     8     4    2.0704E+02 -3.3082E+00   2.1035E+02  0.000E+00  0.000E+00  0.000E+00  1.00631E+03  3.188E+00  4.623E+01  4.711E+00 -2.341E-01
   1   13    2     8     5    2.1035E+02 -2.2380E+00   2.1259E+02  0.000E+00  0.000E+00  0.000E+00  1.00008E+03  3.204E+00  4.646E+01  4.734E+00 -1.576E-01
   1   13    1     8     6    2.1259E+02 -1.8158E+00   2.1440E+02  0.000E+00  0.000E+00  0.000E+00  9.95091E+02  3.215E+00  4.662E+01  2.851E+00 -2.123E-01
   1    8    6     9     1    0.0000E+00  0.0000E+00   0.0000E+00  0.000E+00  0.000E+00  0.000E+00  1.07875E+03  0.000E+00  4.000E+00  0.000E+00  1.000E+00
   1    8    5     9     2    0.0000E+00  0.0000E+00   0.0000E+00  0.000E+00  0.000E+00  0.000E+00  1.07825E+03  0.000E+00  4.000E+00  0.000E+00  1.000E+00





UNSATURATED ZONE PACKAGE VOLUMETRIC BUDGET FOR  TIME STEP    30 STRESS PERIOD    7
  ------------------------------------------------------------------------------



     CUMULATIVE VOLUMES      L**3       RATES FOR THIS TIME STEP      L**3/T
     ------------------                 ------------------------

           IN:                                      IN:
           ---                                      ---
        INFILTRATION =   101974973.9916          INFILTRATION =           0.8475

          OUT:                                     OUT:
          ----                                     ----
              UZF ET =   101817495.3758                UZF ET =          23.3184
        UZF RECHARGE =       73224.0000          UZF RECHARGE =       0.0000E+00

            IN - OUT =       84254.6158              IN - OUT =         -22.4709

          STORAGE:                                 STORAGE:
          --------                                 --------
      STORAGE CHANGE =       84242.0924        STORAGE CHANGE =         -22.4709

 PERCENT DISCREPANCY IS DIFFERENCE BETWEEN IN-OUT MINUS CHANGE IN STORAGE
 DIVIDED BY THE AVERAGE OF IN AND OUT TIMES 100

 PERCENT DISCREPANCY =           0.00     PERCENT DISCREPANCY =          -0.00






1
  VOLUMETRIC BUDGET FOR AGRICULTURAL FIELDS AT  END OF TIME STEP   30, STRESS PERIOD   7
  ------------------------------------------------------------------------------

     CUMULATIVE VOLUMES      L**3       RATES FOR THIS TIME STEP      L**3/T
     ------------------                 ------------------------

           IN:                                      IN:
           ---                                      ---
               AG WELLS  =           0.0000                 AG WELLS  =           0.0000
      DIVERSION SEGMENTS =    88526448.0000        DIVERSION SEGMENTS =           0.0000
           GW IRRIGATION =           0.0000             GW IRRIGATION =           0.0000
           SW IRRIGATION =           0.0000             SW IRRIGATION =           0.0000
        SYSTEM LOSSES GW =           0.0000          SYSTEM LOSSES GW =           0.0000
        SYSTEM LOSSES SW =           0.0000          SYSTEM LOSSES SW =           0.0000

                TOTAL IN =    88526448.0000                  TOTAL IN =           0.0000

          OUT:                                     OUT:
          ----                                     ----
               AG WELLS  =           0.0000                 AG WELLS  =           0.0000
      DIVERSION SEGMENTS =           0.0000        DIVERSION SEGMENTS =           0.0000
           GW IRRIGATION =           0.0000             GW IRRIGATION =           0.0000
           SW IRRIGATION =    88528192.0000             SW IRRIGATION =           0.0000
        SYSTEM LOSSES GW =           0.0000          SYSTEM LOSSES GW =           0.0000
        SYSTEM LOSSES SW =           0.0000          SYSTEM LOSSES SW =           0.0000

               TOTAL OUT =    88528192.0000                 TOTAL OUT =           0.0000

                IN - OUT =       -1744.0000                  IN - OUT =           0.0000

     PERCENT DISCREPANCY =          -0.00         PERCENT DISCREPANCY =           0.00



1
  VOLUMETRIC BUDGET FOR ENTIRE MODEL AT END OF TIME STEP   30, STRESS PERIOD   7
  ------------------------------------------------------------------------------

     CUMULATIVE VOLUMES      L**3       RATES FOR THIS TIME STEP      L**3/T
     ------------------                 ------------------------

           IN:                                      IN:
           ---                                      ---
             STORAGE     =    13626474.0000               STORAGE     =           0.3259
       CONSTANT HEAD     =           0.0000         CONSTANT HEAD     =           0.0000
     HEAD DEP BOUNDS     =     4533349.5000       HEAD DEP BOUNDS     =           0.2858
      STREAM LEAKAGE     =   194384624.0000        STREAM LEAKAGE     =          12.8282
        UZF RECHARGE     =       73223.9531          UZF RECHARGE     =           0.0000
               GW ET     =           0.0000                 GW ET     =           0.0000
     SURFACE LEAKAGE     =           0.0000       SURFACE LEAKAGE     =           0.0000
           AG WELLS      =           0.0000             AG WELLS      =           0.0000

                TOTAL IN =   212617664.0000                  TOTAL IN =          13.4399

          OUT:                                     OUT:
          ----                                     ----
             STORAGE     =    39265684.0000               STORAGE     =           3.4350
       CONSTANT HEAD     =           0.0000         CONSTANT HEAD     =           0.0000
     HEAD DEP BOUNDS     =     4632682.0000       HEAD DEP BOUNDS     =           0.2936
      STREAM LEAKAGE     =   167180064.0000        STREAM LEAKAGE     =           9.5265
        UZF RECHARGE     =           0.0000          UZF RECHARGE     =           0.0000
               GW ET     =     1543816.7500                 GW ET     =           0.1848
     SURFACE LEAKAGE     =           0.0000       SURFACE LEAKAGE     =           0.0000
           AG WELLS      =           0.0000             AG WELLS      =           0.0000

               TOTAL OUT =   212622256.0000                 TOTAL OUT =          13.4399

                IN - OUT =       -4592.0000                  IN - OUT =       2.1935E-05

     PERCENT DISCREPANCY =          -0.00         PERCENT DISCREPANCY =           0.00






         TIME SUMMARY AT END OF TIME STEP   30 IN STRESS PERIOD    7
                    SECONDS     MINUTES      HOURS       DAYS        YEARS
                    -----------------------------------------------------------
   TIME STEP LENGTH  87667.      1461.1      24.352      1.0147     2.77799E-03
 STRESS PERIOD TIME 2.63000E+06  43833.      730.56      30.440     8.33397E-02
         TOTAL TIME 1.58664E+07 2.64440E+05  4407.3      183.64     0.50278    
1
1
                            STRESS PERIOD NO.    8, LENGTH =   2630000.    
                            -----------------------------------------------

                              NUMBER OF TIME STEPS =    30

                               MULTIPLIER FOR DELT =     1.000

                            INITIAL TIME STEP SIZE =   87666.66    

 REUSING NON-PARAMETER GHB CELLS FROM LAST STRESS PERIOD

      2 GHB CELLS

 REUSING STREAM SEGMENT DATA FROM LAST STRESS PERIOD



            AREAL INFILTRATION RATE
 READING ON UNIT   19 WITH FORMAT: (FREE)              

            1           2           3           4           5           6           7           8           9          10
 ........................................................................................................................
   1   1.0000E-10  2.0000E-10   0.000       0.000       0.000       0.000       0.000       0.000       0.000       0.000    
   2   2.0000E-10  1.0000E-10  2.0000E-10   0.000       0.000      8.0000E-10  8.0000E-10  5.0000E-10   0.000       0.000    
   3    0.000      5.0000E-10  1.0000E-10  1.0000E-10  8.0000E-10  8.0000E-10  5.0000E-10  5.0000E-10   0.000       0.000    
   4   8.0000E-10  5.0000E-10  1.0000E-10  1.0000E-10  1.0000E-10  1.0000E-10  1.0000E-10  1.0000E-10  2.0000E-10   0.000    
   5   8.0000E-10  5.0000E-10  1.0000E-10  1.0000E-10  1.0000E-10  1.0000E-10  1.0000E-10  1.0000E-10  1.0000E-10  1.0000E-10
   6   8.0000E-10  5.0000E-10  5.0000E-10  2.0000E-10  2.0000E-10  1.0000E-10  1.0000E-10  1.0000E-10  1.0000E-10  5.0000E-10
   7   8.0000E-10  5.0000E-10  5.0000E-10  2.0000E-10  2.0000E-10  1.0000E-10  1.0000E-10  2.0000E-10  2.0000E-10   0.000    
   8    0.000      5.0000E-10  5.0000E-10  2.0000E-10  2.0000E-10  1.0000E-10  1.0000E-10  2.0000E-10  5.0000E-10   0.000    
   9    0.000      5.0000E-10  5.0000E-10  2.0000E-10  2.0000E-10  1.0000E-10  1.0000E-10  2.0000E-10  5.0000E-10   0.000    
  10    0.000      5.0000E-10  5.0000E-10  2.0000E-10  2.0000E-10  1.0000E-10  1.0000E-10  2.0000E-10  5.0000E-10  8.0000E-10
  11    0.000      1.0000E-10  1.0000E-10  1.0000E-10  1.0000E-10  1.0000E-10  1.0000E-10  2.0000E-10  5.0000E-10   0.000    
  12   1.0000E-10  1.0000E-10  1.0000E-10  1.0000E-10  1.0000E-10  1.0000E-10  1.0000E-10  1.0000E-10  2.0000E-10   0.000    
  13   1.0000E-10  1.0000E-10  2.0000E-10  2.0000E-10  2.0000E-10  2.0000E-10  2.0000E-10  1.0000E-10  1.0000E-10   0.000    
  14    0.000      2.0000E-10  5.0000E-10  5.0000E-10  5.0000E-10  5.0000E-10  5.0000E-10  2.0000E-10  1.0000E-10   0.000    
  15    0.000       0.000      8.0000E-10  8.0000E-10  8.0000E-10  8.0000E-10   0.000       0.000       0.000       0.000    

                  ET RATE =  4.000000E-07

 USING ET EXTINCTION DEPTH FROM PREVIOUS STRESS PERIOD. CURRENT PERIOD IS:       8

 USING EXTINCTION WATER CONTENT FROM PREVIOUS STRESS PERIOD. CURRENT PERIOD IS:       8

 USING AIR ENTRY PRESSURE FROM PREVIOUS STRESS PERIOD. CURRENT PERIOD IS:       8

 USING ROOT PRESSURE HEAD FROM PREVIOUS STRESS PERIOD. CURRENT PERIOD IS:       8

 USING ROOT ACTIVITY FROM PREVIOUS STRESS PERIOD. CURRENT PERIOD IS:       8

 PROCESSING AG STRESS PERIOD DATA

 READING AG STRESS PERIOD DATA

 READING IRRIGATION SEGMENT

 READING IRRIGATION WELL

 READING SUPPLEMENTAL WELL

 END PROCESSING AG STRESS PERIOD DATA OPTIONS
 
 SOLVING FOR HEAD 
                                                   Max.-Head-Change                         Max.-Flux-Residual
  Residual-Control   Outer-Iter.   Inner-Iter.     Column Row Layer    Maximum-Head-Change  Column Row Layer    Maximum-Flux-Residual          L2-NORM 
          0                 1           2             2   13     1       0.5200654079E-02       2   13    1         0.2957282123E+00      0.6008720251E+00
          0                 2           2             4    7     1      -0.2143379234E+00       5    6    1        -0.1151288861E+02      0.2826669053E+02
          0                 3           2             4    7     1       0.1453093379E-01       5    6    1         0.8058895720E+00      0.1977138140E+01
          0                 4           2             4    7     1      -0.5782007853E-03       5    6    1        -0.3296099229E-01      0.8117340529E-01
          0                 5           1             4    7     1       0.7129464040E-05       5    6    1         0.4177172545E-03      0.1084517702E-02

    ------------------------------------------------
       NWT REQUIRED            5 OUTER ITERATIONS 
       AND A TOTAL OF          9 INNER ITERATIONS.
    ------------------------------------------------

 OUTPUT CONTROL FOR STRESS PERIOD    8   TIME STEP    1
    PRINT BUDGET
    SAVE BUDGET
 UBDSV1 SAVING "         STORAGE" ON UNIT 102 AT TIME STEP  1, STRESS PERIOD   8
 UBDSV2 SAVING "   CONSTANT HEAD" ON UNIT 102 AT TIME STEP  1, STRESS PERIOD   8
 UBDSV1 SAVING "FLOW RIGHT FACE " ON UNIT 102 AT TIME STEP  1, STRESS PERIOD   8
 UBDSV1 SAVING "FLOW FRONT FACE " ON UNIT 102 AT TIME STEP  1, STRESS PERIOD   8

  HEAD DEP BOUNDS   PERIOD    8   STEP     1
 BOUNDARY      1   LAYER   1   ROW    13   COL     1   RATE   -0.293361    
 BOUNDARY      2   LAYER   1   ROW    14   COL     9   RATE    0.285765    



 STREAM LISTING     PERIOD      8   STEP        1

 LAYER ROW COL. STREAM  RCH.  FLOW INTO     FLOW TO   FLOW OUT OF   OVRLND.     DIRECT     STREAM       STREAM     STREAM     STREAM   STREAMBED  STREAMBED
                SEG.NO.  NO.  STRM. RCH.    AQUIFER    STRM. RCH.    RUNOFF     PRECIP       ET          HEAD       DEPTH      WIDTH   CONDCTNC.   GRADIENT

   1    1    1     1     1    5.6250E+01  3.5875E-01   5.5891E+01  0.000E+00  0.000E+00  0.000E+00  1.09453E+03  1.479E+00  1.780E+01  8.010E-02  1.493E+00
   1    2    2     1     2    5.5891E+01  5.5550E-01   5.5336E+01  0.000E+00  0.000E+00  0.000E+00  1.08953E+03  1.473E+00  1.774E+01  1.242E-01  1.491E+00
   1    3    3     1     3    5.5336E+01  4.7368E-01   5.4862E+01  0.000E+00  0.000E+00  0.000E+00  1.08389E+03  1.467E+00  1.767E+01  1.060E-01  1.489E+00
   1    3    4     1     4    5.4862E+01  4.3613E-01   5.4426E+01  0.000E+00  0.000E+00  0.000E+00  1.07887E+03  1.461E+00  1.762E+01  9.777E-02  1.487E+00
   1    4    5     2     1    5.2426E+01  3.8056E-01   5.2046E+01  0.000E+00  0.000E+00  0.000E+00  1.07381E+03  1.879E+00  1.200E+01  7.800E-02  1.626E+00
   1    5    6     2     2    5.2046E+01  2.9230E-01   5.1753E+01  0.000E+00  0.000E+00  0.000E+00  1.06838E+03  1.872E+00  1.200E+01  6.000E-02  1.624E+00
   1    6    6     2     3    5.1753E+01  2.9192E-01   5.1461E+01  0.000E+00  0.000E+00  0.000E+00  1.06366E+03  1.865E+00  1.200E+01  6.000E-02  1.622E+00
   1    7    6     2     4    5.1461E+01  2.9154E-01   5.1170E+01  0.000E+00  0.000E+00  0.000E+00  1.05893E+03  1.859E+00  1.200E+01  6.000E-02  1.620E+00
   1    8    6     2     5    5.1170E+01  2.9116E-01   5.0879E+01  0.000E+00  0.000E+00  0.000E+00  1.05421E+03  1.853E+00  1.200E+01  6.000E-02  1.618E+00
   1    3    5     3     1    2.0000E+00  2.8252E-01   1.7175E+00  0.000E+00  0.000E+00  0.000E+00  1.07555E+03  1.909E+00  9.636E+00  7.227E-02  1.955E+00
   1    3    6     3     2    1.7175E+00  2.4905E-01   1.4684E+00  0.000E+00  0.000E+00  0.000E+00  1.07264E+03  1.727E+00  8.909E+00  6.682E-02  1.864E+00
   1    3    7     3     3    1.4684E+00  1.9718E-01   1.2712E+00  0.000E+00  0.000E+00  0.000E+00  1.06987E+03  1.555E+00  8.218E+00  5.547E-02  1.777E+00
   1    4    8     3     4    1.2712E+00  2.2567E-01   1.0456E+00  0.000E+00  0.000E+00  0.000E+00  1.06682E+03  1.364E+00  7.455E+00  6.709E-02  1.682E+00
   1    5    8     3     5    1.0456E+00  1.5790E-01   8.8768E-01  0.000E+00  0.000E+00  0.000E+00  1.06362E+03  1.164E+00  6.655E+00  4.991E-02  1.582E+00
   1    6    8     3     6    8.8768E-01  5.5980E-02   8.3170E-01  0.000E+00  0.000E+00  0.000E+00  1.06158E+03  1.036E+00  6.145E+00  1.844E-02  1.518E+00
   1    5   10     4     1    1.0000E+01  9.0919E-02   9.9091E+00  0.000E+00  0.000E+00  0.000E+00  1.07836E+03  6.368E-01  1.000E+01  2.500E-02  1.212E+00
   1    5    9     4     2    9.9091E+00  1.8158E-01   9.7275E+00  0.000E+00  0.000E+00  0.000E+00  1.07154E+03  6.315E-01  1.000E+01  5.000E-02  1.211E+00
   1    6    8     4     3    9.7275E+00  1.2689E-01   9.6006E+00  0.000E+00  0.000E+00  0.000E+00  1.06381E+03  6.256E-01  1.000E+01  3.500E-02  1.209E+00
   1    6    8     5     1    1.0432E+01  2.2686E-01   1.0205E+01  0.000E+00  0.000E+00  0.000E+00  1.05868E+03  6.790E-01  1.542E+01  6.166E-02  1.226E+00
   1    7    7     5     2    1.0205E+01  2.7894E-01   9.9265E+00  0.000E+00  0.000E+00  0.000E+00  1.05417E+03  6.732E-01  1.519E+01  7.594E-02  1.224E+00
   1    8    7     5     3    9.9265E+00  1.9221E-01   9.7343E+00  0.000E+00  0.000E+00  0.000E+00  1.04992E+03  6.676E-01  1.497E+01  5.241E-02  1.223E+00
   1    8    6     5     4    9.7343E+00  1.3577E-01   9.5985E+00  0.000E+00  0.000E+00  0.000E+00  1.04691E+03  6.637E-01  1.482E+01  3.706E-02  1.221E+00
   1    9    6     6     1    9.5985E+00  2.2097E-01   9.3776E+00  0.000E+00  0.000E+00  0.000E+00  1.04341E+03  6.828E-01  1.200E+01  6.000E-02  1.228E+00
   1   10    7     6     2    9.3776E+00  2.2039E-01   9.1572E+00  0.000E+00  0.000E+00  0.000E+00  1.03885E+03  6.732E-01  1.200E+01  6.000E-02  1.224E+00
   1   11    7     6     3    9.1572E+00  2.1981E-01   8.9374E+00  0.000E+00  0.000E+00  0.000E+00  1.03430E+03  6.636E-01  1.200E+01  6.000E-02  1.221E+00
   1   12    7     6     4    8.9374E+00  2.1923E-01   8.7181E+00  0.000E+00  0.000E+00  0.000E+00  1.02974E+03  6.539E-01  1.200E+01  6.000E-02  1.218E+00
   1   13    7     6     5    8.7181E+00 -1.4272E-01   8.8609E+00  0.000E+00  0.000E+00  0.000E+00  1.02656E+03  6.522E-01  1.200E+01  2.400E-01 -1.982E-01
   1   14    9     7     1    1.5000E+02  1.3359E+00   1.4866E+02  0.000E+00  0.000E+00  0.000E+00  1.03987E+03  2.288E+00  5.529E+01  5.593E-01  7.962E-01
   1   13    8     7     2    1.4866E+02  1.8187E+00   1.4685E+02  0.000E+00  0.000E+00  0.000E+00  1.03478E+03  2.279E+00  5.526E+01  6.148E-01  9.861E-01
   1   13    7     7     3    1.4685E+02  1.4152E+00   1.4543E+02  0.000E+00  0.000E+00  0.000E+00  1.02969E+03  2.271E+00  5.522E+01  5.585E-01  8.447E-01
   1   13    6     8     1    1.5429E+02  7.6757E-01   1.5352E+02  0.000E+00  0.000E+00  0.000E+00  1.02472E+03  2.844E+00  4.124E+01  4.202E-01  6.088E-01
   1   13    5     8     2    1.5352E+02  4.5080E-02   1.5348E+02  0.000E+00  0.000E+00  0.000E+00  1.01847E+03  2.841E+00  4.120E+01  4.198E-01  3.579E-02
   1   13    4     8     3    1.5348E+02 -3.2480E+00   1.5673E+02  0.000E+00  0.000E+00  0.000E+00  1.01223E+03  2.852E+00  4.136E+01  4.215E+00 -2.569E-01
   1   13    3     8     4    1.5673E+02 -4.2599E+00   1.6099E+02  0.000E+00  0.000E+00  0.000E+00  1.00600E+03  2.878E+00  4.173E+01  4.253E+00 -3.339E-01
   1   13    2     8     5    1.6099E+02 -3.2651E+00   1.6425E+02  0.000E+00  0.000E+00  0.000E+00  9.99778E+02  2.903E+00  4.210E+01  4.290E+00 -2.537E-01
   1   13    1     8     6    1.6425E+02 -2.3906E+00   1.6664E+02  0.000E+00  0.000E+00  0.000E+00  9.94797E+02  2.922E+00  4.237E+01  2.591E+00 -3.076E-01
   1    8    6     9     1    5.0879E+01  0.0000E+00   5.0879E+01  0.000E+00  0.000E+00  0.000E+00  1.08476E+03  6.014E+00  4.000E+00  0.000E+00  3.005E+00
   1    8    5     9     2    5.0879E+01  0.0000E+00   5.0879E+01  0.000E+00  0.000E+00  0.000E+00  1.08426E+03  6.014E+00  4.000E+00  0.000E+00  3.005E+00



 UBDSV3 SAVING "           GW ET" ON UNIT  61 AT TIME STEP  1, STRESS PERIOD   8
 UBDSV3 SAVING "    UZF RECHARGE" ON UNIT  61 AT TIME STEP  1, STRESS PERIOD   8
 UBDSV3 SAVING " SURFACE LEAKAGE" ON UNIT  61 AT TIME STEP  1, STRESS PERIOD   8
 UBDSV3 SAVING "       HORT+DUNN" ON UNIT  61 AT TIME STEP  1, STRESS PERIOD   8
 UBDSV3 SAVING "  STORAGE CHANGE" ON UNIT  61 AT TIME STEP  1, STRESS PERIOD   8


UNSATURATED ZONE PACKAGE VOLUMETRIC BUDGET FOR  TIME STEP     1 STRESS PERIOD    8
  ------------------------------------------------------------------------------



     CUMULATIVE VOLUMES      L**3       RATES FOR THIS TIME STEP      L**3/T
     ------------------                 ------------------------

           IN:                                      IN:
           ---                                      ---
        INFILTRATION =   112564100.7375          INFILTRATION =         120.7885

          OUT:                                     OUT:
          ----                                     ----
              UZF ET =   107149162.6217                UZF ET =          60.8175
        UZF RECHARGE =       73224.0000          UZF RECHARGE =       0.0000E+00

            IN - OUT =     5341714.1158              IN - OUT =          59.9710

          STORAGE:                                 STORAGE:
          --------                                 --------
      STORAGE CHANGE =     5341701.2757        STORAGE CHANGE =          59.9710

 PERCENT DISCREPANCY IS DIFFERENCE BETWEEN IN-OUT MINUS CHANGE IN STORAGE
 DIVIDED BY THE AVERAGE OF IN AND OUT TIMES 100

 PERCENT DISCREPANCY =           0.00     PERCENT DISCREPANCY =           0.00






 

            AG WELLS      PERIOD    8   STEP   1
 AG WELL      1   LAYER   1   ROW     6   COL     4   RATE    -11.5102    
 AG WELL      2   LAYER   1   ROW     6   COL     5   RATE    -11.5102    
 AG WELL      3   LAYER   1   ROW     7   COL     4   RATE    -11.5102    
 AG WELL      4   LAYER   1   ROW     7   COL     5   RATE    -11.5102    
 AG WELL      5   LAYER   1   ROW     8   COL     4   RATE    -11.5102    
 AG WELL      6   LAYER   1   ROW     8   COL     5   RATE    -11.5102    
 
 

   DIVERSION SEGMENTS     PERIOD    8   STEP   1
 SEGMENT      9   RATE     50.8787    
 
 

        SW IRRIGATION     PERIOD    8   STEP   1
 SEGMENT      9   ROW     6   COL     4   RATE     8.47995    
 SEGMENT      9   ROW     6   COL     5   RATE     8.47995    
 SEGMENT      9   ROW     7   COL     4   RATE     8.47995    
 SEGMENT      9   ROW     7   COL     5   RATE     8.47995    
 SEGMENT      9   ROW     8   COL     4   RATE     8.47995    
 SEGMENT      9   ROW     8   COL     5   RATE     8.47995    
 
 

        GW IRRIGATION     PERIOD    8   STEP   1
 AG WELL      1   ROW     6   COL     4   RATE     11.5102    
 AG WELL      2   ROW     6   COL     5   RATE     11.5102    
 AG WELL      3   ROW     7   COL     4   RATE     11.5102    
 AG WELL      4   ROW     7   COL     5   RATE     11.5102    
 AG WELL      5   ROW     8   COL     4   RATE     11.5102    
 AG WELL      6   ROW     8   COL     5   RATE     11.5102    
 
1
  VOLUMETRIC BUDGET FOR AGRICULTURAL FIELDS AT  END OF TIME STEP    1, STRESS PERIOD   8
  ------------------------------------------------------------------------------

     CUMULATIVE VOLUMES      L**3       RATES FOR THIS TIME STEP      L**3/T
     ------------------                 ------------------------

           IN:                                      IN:
           ---                                      ---
               AG WELLS  =     6054378.0000                 AG WELLS  =          69.0613
      DIVERSION SEGMENTS =    92986808.0000        DIVERSION SEGMENTS =          50.8787
           GW IRRIGATION =           0.0000             GW IRRIGATION =           0.0000
           SW IRRIGATION =           0.0000             SW IRRIGATION =           0.0000
        SYSTEM LOSSES GW =           0.0000          SYSTEM LOSSES GW =           0.0000
        SYSTEM LOSSES SW =           0.0000          SYSTEM LOSSES SW =           0.0000

                TOTAL IN =    99041184.0000                  TOTAL IN =         119.9400

          OUT:                                     OUT:
          ----                                     ----
               AG WELLS  =           0.0000                 AG WELLS  =           0.0000
      DIVERSION SEGMENTS =           0.0000        DIVERSION SEGMENTS =           0.0000
           GW IRRIGATION =     6054378.0000             GW IRRIGATION =          69.0613
           SW IRRIGATION =    92988640.0000             SW IRRIGATION =          50.8797
        SYSTEM LOSSES GW =           0.0000          SYSTEM LOSSES GW =           0.0000
        SYSTEM LOSSES SW =           0.0000          SYSTEM LOSSES SW =           0.0000

               TOTAL OUT =    99043016.0000                 TOTAL OUT =         119.9410

                IN - OUT =       -1832.0000                  IN - OUT =      -1.0147E-03

     PERCENT DISCREPANCY =          -0.00         PERCENT DISCREPANCY =          -0.00



1
  VOLUMETRIC BUDGET FOR ENTIRE MODEL AT END OF TIME STEP    1, STRESS PERIOD   8
  ------------------------------------------------------------------------------

     CUMULATIVE VOLUMES      L**3       RATES FOR THIS TIME STEP      L**3/T
     ------------------                 ------------------------

           IN:                                      IN:
           ---                                      ---
             STORAGE     =    19941622.0000               STORAGE     =          72.0359
       CONSTANT HEAD     =           0.0000         CONSTANT HEAD     =           0.0000
     HEAD DEP BOUNDS     =     4558401.5000       HEAD DEP BOUNDS     =           0.2858
      STREAM LEAKAGE     =   195439776.0000        STREAM LEAKAGE     =          12.0359
        UZF RECHARGE     =       73223.9531          UZF RECHARGE     =           0.0000
               GW ET     =           0.0000                 GW ET     =           0.0000
     SURFACE LEAKAGE     =           0.0000       SURFACE LEAKAGE     =           0.0000
           AG WELLS      =           0.0000             AG WELLS      =           0.0000

                TOTAL IN =   220013024.0000                  TOTAL IN =          84.3576

          OUT:                                     OUT:
          ----                                     ----
             STORAGE     =    39406012.0000               STORAGE     =           1.6007
       CONSTANT HEAD     =           0.0000         CONSTANT HEAD     =           0.0000
     HEAD DEP BOUNDS     =     4658400.0000       HEAD DEP BOUNDS     =           0.2934
      STREAM LEAKAGE     =   168346576.0000        STREAM LEAKAGE     =          13.3063
        UZF RECHARGE     =           0.0000          UZF RECHARGE     =           0.0000
               GW ET     =     1552216.2500                 GW ET     =       9.5812E-02
     SURFACE LEAKAGE     =           0.0000       SURFACE LEAKAGE     =           0.0000
           AG WELLS      =     6054378.0000             AG WELLS      =          69.0613

               TOTAL OUT =   220017600.0000                 TOTAL OUT =          84.3575

                IN - OUT =       -4576.0000                  IN - OUT =       5.3406E-05

     PERCENT DISCREPANCY =          -0.00         PERCENT DISCREPANCY =           0.00






         TIME SUMMARY AT END OF TIME STEP    1 IN STRESS PERIOD    8
                    SECONDS     MINUTES      HOURS       DAYS        YEARS
                    -----------------------------------------------------------
   TIME STEP LENGTH  87667.      1461.1      24.352      1.0147     2.77799E-03
 STRESS PERIOD TIME  87667.      1461.1      24.352      1.0147     2.77799E-03
         TOTAL TIME 1.59541E+07 2.65901E+05  4431.7      184.65     0.50555    
1
 
 SOLVING FOR HEAD 
                                                   Max.-Head-Change                         Max.-Flux-Residual
  Residual-Control   Outer-Iter.   Inner-Iter.     Column Row Layer    Maximum-Head-Change  Column Row Layer    Maximum-Flux-Residual          L2-NORM 
          0                 1           2             4   13     1       0.7964989556E-02       4   13    1         0.4602976023E+00      0.1120900713E+01
          0                 2           2             4    7     1      -0.9420854114E-01       5    6    1        -0.5084252944E+01      0.1249516269E+02
          0                 3           2             4    7     1       0.6859004908E-01       5    6    1         0.3786585339E+01      0.9301015479E+01
          0                 4           2             4    7     1      -0.2729291675E-02       5    8    1        -0.1548315508E+00      0.4046469159E+00
          0                 5           2             7   13     1       0.1566397257E-03       7   13    1         0.8973676294E-02      0.1065049765E-01
          0                 6           1             7   13     1      -0.6229714887E-05       7   13    1        -0.3667736712E-03      0.3868534260E-03

    ------------------------------------------------
       NWT REQUIRED            6 OUTER ITERATIONS 
       AND A TOTAL OF         11 INNER ITERATIONS.
    ------------------------------------------------

 NO OUTPUT CONTROL FOR STRESS PERIOD    8   TIME STEP    2
 
 SOLVING FOR HEAD 
                                                   Max.-Head-Change                         Max.-Flux-Residual
  Residual-Control   Outer-Iter.   Inner-Iter.     Column Row Layer    Maximum-Head-Change  Column Row Layer    Maximum-Flux-Residual          L2-NORM 
          0                 1           2             4   13     1       0.9078994856E-02       4   13    1         0.5230380405E+00      0.1258820051E+01
          0                 2           2             4    7     1      -0.2141523614E+00       5    6    1        -0.1152400082E+02      0.2827425729E+02
          0                 3           2             4    7     1       0.1458270855E-01       5    6    1         0.8065353588E+00      0.1983585285E+01
          0                 4           2             4    7     1      -0.5802609274E-03       5    6    1        -0.3297458799E-01      0.8161662010E-01
          0                 5           1             4    7     1       0.7154866765E-05       4    6    1         0.4170344341E-03      0.1121912506E-02

    ------------------------------------------------
       NWT REQUIRED            5 OUTER ITERATIONS 
       AND A TOTAL OF          9 INNER ITERATIONS.
    ------------------------------------------------

 NO OUTPUT CONTROL FOR STRESS PERIOD    8   TIME STEP    3
 
 SOLVING FOR HEAD 
                                                   Max.-Head-Change                         Max.-Flux-Residual
  Residual-Control   Outer-Iter.   Inner-Iter.     Column Row Layer    Maximum-Head-Change  Column Row Layer    Maximum-Flux-Residual          L2-NORM 
          0                 1           2             5    8     1       0.1259337842E-01       5    8    1         0.6923270447E+00      0.1811118217E+01
          0                 2           2             4    7     1      -0.9440275207E-01       5    8    1        -0.5120666776E+01      0.1255263204E+02
          0                 3           2             4    7     1       0.6856047058E-01       5    8    1         0.3786729179E+01      0.9296786975E+01
          0                 4           2             4    7     1      -0.2728114498E-02       5    8    1        -0.1548399107E+00      0.4032107658E+00
          0                 5           2             7   13     1       0.1555688290E-03       7   13    1         0.8912342480E-02      0.1033078949E-01
          0                 6           1             7   13     1      -0.6188550248E-05       7   13    1        -0.3643510809E-03      0.3721317864E-03

    ------------------------------------------------
       NWT REQUIRED            6 OUTER ITERATIONS 
       AND A TOTAL OF         11 INNER ITERATIONS.
    ------------------------------------------------

 NO OUTPUT CONTROL FOR STRESS PERIOD    8   TIME STEP    4
 
 SOLVING FOR HEAD 
                                                   Max.-Head-Change                         Max.-Flux-Residual
  Residual-Control   Outer-Iter.   Inner-Iter.     Column Row Layer    Maximum-Head-Change  Column Row Layer    Maximum-Flux-Residual          L2-NORM 
          0                 1           2             5    8     1       0.1276975942E-01       5    8    1         0.7015343551E+00      0.1878181259E+01
          0                 2           2             4    7     1      -0.2143095468E+00       5    8    1        -0.1155611873E+02      0.2832641277E+02
          0                 3           2             4    7     1       0.1459341643E-01       5    6    1         0.8087611846E+00      0.1985577572E+01
          0                 4           2             4    7     1      -0.5806869831E-03       5    6    1        -0.3306684092E-01      0.8142833068E-01
          0                 5           1             4    7     1       0.7160120261E-05       5    6    1         0.4182709181E-03      0.1077095326E-02

    ------------------------------------------------
       NWT REQUIRED            5 OUTER ITERATIONS 
       AND A TOTAL OF          9 INNER ITERATIONS.
    ------------------------------------------------

 OUTPUT CONTROL FOR STRESS PERIOD    8   TIME STEP    5
    PRINT BUDGET
    SAVE BUDGET
 UBDSV1 SAVING "         STORAGE" ON UNIT 102 AT TIME STEP  5, STRESS PERIOD   8
 UBDSV2 SAVING "   CONSTANT HEAD" ON UNIT 102 AT TIME STEP  5, STRESS PERIOD   8
 UBDSV1 SAVING "FLOW RIGHT FACE " ON UNIT 102 AT TIME STEP  5, STRESS PERIOD   8
 UBDSV1 SAVING "FLOW FRONT FACE " ON UNIT 102 AT TIME STEP  5, STRESS PERIOD   8

  HEAD DEP BOUNDS   PERIOD    8   STEP     5
 BOUNDARY      1   LAYER   1   ROW    13   COL     1   RATE   -0.292335    
 BOUNDARY      2   LAYER   1   ROW    14   COL     9   RATE    0.285764    



 STREAM LISTING     PERIOD      8   STEP        5

 LAYER ROW COL. STREAM  RCH.  FLOW INTO     FLOW TO   FLOW OUT OF   OVRLND.     DIRECT     STREAM       STREAM     STREAM     STREAM   STREAMBED  STREAMBED
                SEG.NO.  NO.  STRM. RCH.    AQUIFER    STRM. RCH.    RUNOFF     PRECIP       ET          HEAD       DEPTH      WIDTH   CONDCTNC.   GRADIENT

   1    1    1     1     1    5.6250E+01  3.5875E-01   5.5891E+01  0.000E+00  0.000E+00  0.000E+00  1.09453E+03  1.479E+00  1.780E+01  8.010E-02  1.493E+00
   1    2    2     1     2    5.5891E+01  5.5550E-01   5.5336E+01  0.000E+00  0.000E+00  0.000E+00  1.08953E+03  1.473E+00  1.774E+01  1.242E-01  1.491E+00
   1    3    3     1     3    5.5336E+01  4.7368E-01   5.4862E+01  0.000E+00  0.000E+00  0.000E+00  1.08389E+03  1.467E+00  1.767E+01  1.060E-01  1.489E+00
   1    3    4     1     4    5.4862E+01  4.3613E-01   5.4426E+01  0.000E+00  0.000E+00  0.000E+00  1.07887E+03  1.461E+00  1.762E+01  9.777E-02  1.487E+00
   1    4    5     2     1    5.2426E+01  3.8056E-01   5.2046E+01  0.000E+00  0.000E+00  0.000E+00  1.07381E+03  1.879E+00  1.200E+01  7.800E-02  1.626E+00
   1    5    6     2     2    5.2046E+01  2.9230E-01   5.1753E+01  0.000E+00  0.000E+00  0.000E+00  1.06838E+03  1.872E+00  1.200E+01  6.000E-02  1.624E+00
   1    6    6     2     3    5.1753E+01  2.9192E-01   5.1461E+01  0.000E+00  0.000E+00  0.000E+00  1.06366E+03  1.865E+00  1.200E+01  6.000E-02  1.622E+00
   1    7    6     2     4    5.1461E+01  2.9154E-01   5.1170E+01  0.000E+00  0.000E+00  0.000E+00  1.05893E+03  1.859E+00  1.200E+01  6.000E-02  1.620E+00
   1    8    6     2     5    5.1170E+01  2.9116E-01   5.0879E+01  0.000E+00  0.000E+00  0.000E+00  1.05421E+03  1.853E+00  1.200E+01  6.000E-02  1.618E+00
   1    3    5     3     1    2.0000E+00  2.8252E-01   1.7175E+00  0.000E+00  0.000E+00  0.000E+00  1.07555E+03  1.909E+00  9.636E+00  7.227E-02  1.955E+00
   1    3    6     3     2    1.7175E+00  2.4905E-01   1.4684E+00  0.000E+00  0.000E+00  0.000E+00  1.07264E+03  1.727E+00  8.909E+00  6.682E-02  1.864E+00
   1    3    7     3     3    1.4684E+00  1.9718E-01   1.2712E+00  0.000E+00  0.000E+00  0.000E+00  1.06987E+03  1.555E+00  8.218E+00  5.547E-02  1.777E+00
   1    4    8     3     4    1.2712E+00  2.2567E-01   1.0456E+00  0.000E+00  0.000E+00  0.000E+00  1.06682E+03  1.364E+00  7.455E+00  6.709E-02  1.682E+00
   1    5    8     3     5    1.0456E+00  1.5790E-01   8.8768E-01  0.000E+00  0.000E+00  0.000E+00  1.06362E+03  1.164E+00  6.655E+00  4.991E-02  1.582E+00
   1    6    8     3     6    8.8768E-01  5.5980E-02   8.3170E-01  0.000E+00  0.000E+00  0.000E+00  1.06158E+03  1.036E+00  6.145E+00  1.844E-02  1.518E+00
   1    5   10     4     1    1.0000E+01  9.0919E-02   9.9091E+00  0.000E+00  0.000E+00  0.000E+00  1.07836E+03  6.368E-01  1.000E+01  2.500E-02  1.212E+00
   1    5    9     4     2    9.9091E+00  1.8158E-01   9.7275E+00  0.000E+00  0.000E+00  0.000E+00  1.07154E+03  6.315E-01  1.000E+01  5.000E-02  1.211E+00
   1    6    8     4     3    9.7275E+00  1.2689E-01   9.6006E+00  0.000E+00  0.000E+00  0.000E+00  1.06381E+03  6.256E-01  1.000E+01  3.500E-02  1.209E+00
   1    6    8     5     1    1.0432E+01  2.2686E-01   1.0205E+01  0.000E+00  0.000E+00  0.000E+00  1.05868E+03  6.790E-01  1.542E+01  6.166E-02  1.226E+00
   1    7    7     5     2    1.0205E+01  2.7894E-01   9.9265E+00  0.000E+00  0.000E+00  0.000E+00  1.05417E+03  6.732E-01  1.519E+01  7.594E-02  1.224E+00
   1    8    7     5     3    9.9265E+00  1.9221E-01   9.7343E+00  0.000E+00  0.000E+00  0.000E+00  1.04992E+03  6.676E-01  1.497E+01  5.241E-02  1.223E+00
   1    8    6     5     4    9.7343E+00  1.3577E-01   9.5985E+00  0.000E+00  0.000E+00  0.000E+00  1.04691E+03  6.637E-01  1.482E+01  3.706E-02  1.221E+00
   1    9    6     6     1    9.5985E+00  2.2097E-01   9.3776E+00  0.000E+00  0.000E+00  0.000E+00  1.04341E+03  6.828E-01  1.200E+01  6.000E-02  1.228E+00
   1   10    7     6     2    9.3776E+00  2.2039E-01   9.1572E+00  0.000E+00  0.000E+00  0.000E+00  1.03885E+03  6.732E-01  1.200E+01  6.000E-02  1.224E+00
   1   11    7     6     3    9.1572E+00  2.1981E-01   8.9374E+00  0.000E+00  0.000E+00  0.000E+00  1.03430E+03  6.636E-01  1.200E+01  6.000E-02  1.221E+00
   1   12    7     6     4    8.9374E+00  2.1923E-01   8.7181E+00  0.000E+00  0.000E+00  0.000E+00  1.02974E+03  6.539E-01  1.200E+01  6.000E-02  1.218E+00
   1   13    7     6     5    8.7181E+00 -1.4076E-01   8.8589E+00  0.000E+00  0.000E+00  0.000E+00  1.02656E+03  6.521E-01  1.200E+01  2.400E-01 -1.955E-01
   1   14    9     7     1    1.5000E+02  1.3359E+00   1.4866E+02  0.000E+00  0.000E+00  0.000E+00  1.03987E+03  2.288E+00  5.529E+01  5.593E-01  7.962E-01
   1   13    8     7     2    1.4866E+02  1.8186E+00   1.4685E+02  0.000E+00  0.000E+00  0.000E+00  1.03478E+03  2.279E+00  5.526E+01  6.148E-01  9.860E-01
   1   13    7     7     3    1.4685E+02  1.4198E+00   1.4543E+02  0.000E+00  0.000E+00  0.000E+00  1.02969E+03  2.271E+00  5.522E+01  5.585E-01  8.474E-01
   1   13    6     8     1    1.5428E+02  7.7193E-01   1.5351E+02  0.000E+00  0.000E+00  0.000E+00  1.02472E+03  2.844E+00  4.124E+01  4.202E-01  6.123E-01
   1   13    5     8     2    1.5351E+02  4.8607E-02   1.5346E+02  0.000E+00  0.000E+00  0.000E+00  1.01847E+03  2.841E+00  4.120E+01  4.198E-01  3.859E-02
   1   13    4     8     3    1.5346E+02 -3.1003E+00   1.5656E+02  0.000E+00  0.000E+00  0.000E+00  1.01223E+03  2.852E+00  4.135E+01  4.214E+00 -2.453E-01
   1   13    3     8     4    1.5656E+02 -4.1373E+00   1.6070E+02  0.000E+00  0.000E+00  0.000E+00  1.00600E+03  2.877E+00  4.171E+01  4.250E+00 -3.245E-01
   1   13    2     8     5    1.6070E+02 -3.0993E+00   1.6380E+02  0.000E+00  0.000E+00  0.000E+00  9.99776E+02  2.901E+00  4.206E+01  4.287E+00 -2.410E-01
   1   13    1     8     6    1.6380E+02 -2.3264E+00   1.6613E+02  0.000E+00  0.000E+00  0.000E+00  9.94794E+02  2.919E+00  4.233E+01  2.588E+00 -2.996E-01
   1    8    6     9     1    5.0879E+01  0.0000E+00   5.0879E+01  0.000E+00  0.000E+00  0.000E+00  1.08476E+03  6.014E+00  4.000E+00  0.000E+00  3.005E+00
   1    8    5     9     2    5.0879E+01  0.0000E+00   5.0879E+01  0.000E+00  0.000E+00  0.000E+00  1.08426E+03  6.014E+00  4.000E+00  0.000E+00  3.005E+00



 UBDSV3 SAVING "           GW ET" ON UNIT  61 AT TIME STEP  5, STRESS PERIOD   8
 UBDSV3 SAVING "    UZF RECHARGE" ON UNIT  61 AT TIME STEP  5, STRESS PERIOD   8
 UBDSV3 SAVING " SURFACE LEAKAGE" ON UNIT  61 AT TIME STEP  5, STRESS PERIOD   8
 UBDSV3 SAVING "       HORT+DUNN" ON UNIT  61 AT TIME STEP  5, STRESS PERIOD   8
 UBDSV3 SAVING "  STORAGE CHANGE" ON UNIT  61 AT TIME STEP  5, STRESS PERIOD   8


UNSATURATED ZONE PACKAGE VOLUMETRIC BUDGET FOR  TIME STEP     5 STRESS PERIOD    8
  ------------------------------------------------------------------------------



     CUMULATIVE VOLUMES      L**3       RATES FOR THIS TIME STEP      L**3/T
     ------------------                 ------------------------

           IN:                                      IN:
           ---                                      ---
        INFILTRATION =   144491305.3460          INFILTRATION =         120.6430

          OUT:                                     OUT:
          ----                                     ----
              UZF ET =   128475831.6052                UZF ET =          60.8175
        UZF RECHARGE =       73224.0000          UZF RECHARGE =       0.0000E+00

            IN - OUT =    15942249.7408              IN - OUT =          59.8255

          STORAGE:                                 STORAGE:
          --------                                 --------
      STORAGE CHANGE =    15942236.1334        STORAGE CHANGE =          59.8255

 PERCENT DISCREPANCY IS DIFFERENCE BETWEEN IN-OUT MINUS CHANGE IN STORAGE
 DIVIDED BY THE AVERAGE OF IN AND OUT TIMES 100

 PERCENT DISCREPANCY =           0.00     PERCENT DISCREPANCY =           0.00






 

            AG WELLS      PERIOD    8   STEP   5
 AG WELL      1   LAYER   1   ROW     6   COL     4   RATE    -11.4860    
 AG WELL      2   LAYER   1   ROW     6   COL     5   RATE    -11.4860    
 AG WELL      3   LAYER   1   ROW     7   COL     4   RATE    -11.4860    
 AG WELL      4   LAYER   1   ROW     7   COL     5   RATE    -11.4860    
 AG WELL      5   LAYER   1   ROW     8   COL     4   RATE    -11.4860    
 AG WELL      6   LAYER   1   ROW     8   COL     5   RATE    -11.4860    
 
 

   DIVERSION SEGMENTS     PERIOD    8   STEP   5
 SEGMENT      9   RATE     50.8787    
 
 

        SW IRRIGATION     PERIOD    8   STEP   5
 SEGMENT      9   ROW     6   COL     4   RATE     8.47995    
 SEGMENT      9   ROW     6   COL     5   RATE     8.47995    
 SEGMENT      9   ROW     7   COL     4   RATE     8.47995    
 SEGMENT      9   ROW     7   COL     5   RATE     8.47995    
 SEGMENT      9   ROW     8   COL     4   RATE     8.47995    
 SEGMENT      9   ROW     8   COL     5   RATE     8.47995    
 
 

        GW IRRIGATION     PERIOD    8   STEP   5
 AG WELL      1   ROW     6   COL     4   RATE     11.4860    
 AG WELL      2   ROW     6   COL     5   RATE     11.4860    
 AG WELL      3   ROW     7   COL     4   RATE     11.4860    
 AG WELL      4   ROW     7   COL     5   RATE     11.4860    
 AG WELL      5   ROW     8   COL     4   RATE     11.4860    
 AG WELL      6   ROW     8   COL     5   RATE     11.4860    
 
1
  VOLUMETRIC BUDGET FOR AGRICULTURAL FIELDS AT  END OF TIME STEP    5, STRESS PERIOD   8
  ------------------------------------------------------------------------------

     CUMULATIVE VOLUMES      L**3       RATES FOR THIS TIME STEP      L**3/T
     ------------------                 ------------------------

           IN:                                      IN:
           ---                                      ---
               AG WELLS  =    19842588.0000                 AG WELLS  =          68.9158
      DIVERSION SEGMENTS =   110828248.0000        DIVERSION SEGMENTS =          50.8787
           GW IRRIGATION =           0.0000             GW IRRIGATION =           0.0000
           SW IRRIGATION =           0.0000             SW IRRIGATION =           0.0000
        SYSTEM LOSSES GW =           0.0000          SYSTEM LOSSES GW =           0.0000
        SYSTEM LOSSES SW =           0.0000          SYSTEM LOSSES SW =           0.0000

                TOTAL IN =   130670832.0000                  TOTAL IN =         119.7944

          OUT:                                     OUT:
          ----                                     ----
               AG WELLS  =           0.0000                 AG WELLS  =           0.0000
      DIVERSION SEGMENTS =           0.0000        DIVERSION SEGMENTS =           0.0000
           GW IRRIGATION =    19842588.0000             GW IRRIGATION =          68.9158
           SW IRRIGATION =   110830432.0000             SW IRRIGATION =          50.8797
        SYSTEM LOSSES GW =           0.0000          SYSTEM LOSSES GW =           0.0000
        SYSTEM LOSSES SW =           0.0000          SYSTEM LOSSES SW =           0.0000

               TOTAL OUT =   130673024.0000                 TOTAL OUT =         119.7955

                IN - OUT =       -2192.0000                  IN - OUT =      -1.0147E-03

     PERCENT DISCREPANCY =          -0.00         PERCENT DISCREPANCY =          -0.00



1
  VOLUMETRIC BUDGET FOR ENTIRE MODEL AT END OF TIME STEP    5, STRESS PERIOD   8
  ------------------------------------------------------------------------------

     CUMULATIVE VOLUMES      L**3       RATES FOR THIS TIME STEP      L**3/T
     ------------------                 ------------------------

           IN:                                      IN:
           ---                                      ---
             STORAGE     =    34580264.0000               STORAGE     =          71.0800
       CONSTANT HEAD     =           0.0000         CONSTANT HEAD     =           0.0000
     HEAD DEP BOUNDS     =     4658609.5000       HEAD DEP BOUNDS     =           0.2858
      STREAM LEAKAGE     =   199663088.0000        STREAM LEAKAGE     =          12.0482
        UZF RECHARGE     =       73223.9531          UZF RECHARGE     =           0.0000
               GW ET     =           0.0000                 GW ET     =           0.0000
     SURFACE LEAKAGE     =           0.0000       SURFACE LEAKAGE     =           0.0000
           AG WELLS      =           0.0000             AG WELLS      =           0.0000

                TOTAL IN =   238975168.0000                  TOTAL IN =          83.4140

          OUT:                                     OUT:
          ----                                     ----
             STORAGE     =    39925464.0000               STORAGE     =           1.4016
       CONSTANT HEAD     =           0.0000         CONSTANT HEAD     =           0.0000
     HEAD DEP BOUNDS     =     4761042.0000       HEAD DEP BOUNDS     =           0.2923
      STREAM LEAKAGE     =   172898416.0000        STREAM LEAKAGE     =          12.8042
        UZF RECHARGE     =           0.0000          UZF RECHARGE     =           0.0000
               GW ET     =     1552216.2500                 GW ET     =           0.0000
     SURFACE LEAKAGE     =           0.0000       SURFACE LEAKAGE     =           0.0000
           AG WELLS      =    19842588.0000             AG WELLS      =          68.9158

               TOTAL OUT =   238979744.0000                 TOTAL OUT =          83.4139

                IN - OUT =       -4576.0000                  IN - OUT =       4.5776E-05

     PERCENT DISCREPANCY =          -0.00         PERCENT DISCREPANCY =           0.00






         TIME SUMMARY AT END OF TIME STEP    5 IN STRESS PERIOD    8
                    SECONDS     MINUTES      HOURS       DAYS        YEARS
                    -----------------------------------------------------------
   TIME STEP LENGTH  87667.      1461.1      24.352      1.0147     2.77799E-03
 STRESS PERIOD TIME 4.38333E+05  7305.6      121.76      5.0733     1.38899E-02
         TOTAL TIME 1.63048E+07 2.71746E+05  4529.1      188.71     0.51667    
1
 
 SOLVING FOR HEAD 
                                                   Max.-Head-Change                         Max.-Flux-Residual
  Residual-Control   Outer-Iter.   Inner-Iter.     Column Row Layer    Maximum-Head-Change  Column Row Layer    Maximum-Flux-Residual          L2-NORM 
          0                 1           2             5    8     1       0.1814133871E-01       5    8    1         0.9969722723E+00      0.2459339950E+01
          0                 2           2             4    7     1      -0.9456740817E-01       5    8    1        -0.5151133735E+01      0.1260718811E+02
          0                 3           2             4    7     1       0.6857183780E-01       5    8    1         0.3788871977E+01      0.9300696862E+01
          0                 4           2             4    7     1      -0.2728566719E-02       5    8    1        -0.1549287829E+00      0.4031165918E+00
          0                 5           2             7   13     1       0.1545529029E-03       7   13    1         0.8853709773E-02      0.1028209429E-01
          0                 6           1             7   13     1      -0.6145004266E-05       7   13    1        -0.3617636569E-03      0.3695851357E-03

    ------------------------------------------------
       NWT REQUIRED            6 OUTER ITERATIONS 
       AND A TOTAL OF         11 INNER ITERATIONS.
    ------------------------------------------------

 NO OUTPUT CONTROL FOR STRESS PERIOD    8   TIME STEP    6
 
 SOLVING FOR HEAD 
                                                   Max.-Head-Change                         Max.-Flux-Residual
  Residual-Control   Outer-Iter.   Inner-Iter.     Column Row Layer    Maximum-Head-Change  Column Row Layer    Maximum-Flux-Residual          L2-NORM 
          0                 1           2             5    8     1       0.1802468336E-01       5    8    1         0.9898375868E+00      0.2490279543E+01
          0                 2           2             4    7     1      -0.2144813326E+00       5    8    1        -0.1158494955E+02      0.2837869516E+02
          0                 3           2             4    7     1       0.1460511787E-01       5    6    1         0.8107630229E+00      0.1989184367E+01
          0                 4           2             4    7     1      -0.5811525773E-03       5    6    1        -0.3314977971E-01      0.8157036654E-01
          0                 5           1             4    7     1       0.7165861245E-05       5    6    1         0.4193942509E-03      0.1077622718E-02

    ------------------------------------------------
       NWT REQUIRED            5 OUTER ITERATIONS 
       AND A TOTAL OF          9 INNER ITERATIONS.
    ------------------------------------------------

 NO OUTPUT CONTROL FOR STRESS PERIOD    8   TIME STEP    7
 
 SOLVING FOR HEAD 
                                                   Max.-Head-Change                         Max.-Flux-Residual
  Residual-Control   Outer-Iter.   Inner-Iter.     Column Row Layer    Maximum-Head-Change  Column Row Layer    Maximum-Flux-Residual          L2-NORM 
          0                 1           2             5    8     1       0.2312130103E-01       5    8    1         0.1269943256E+01      0.3064401731E+01
          0                 2           2             4    7     1      -0.9474481596E-01       5    8    1        -0.5178431458E+01      0.1265808295E+02
          0                 3           2             4    7     1       0.6858412823E-01       5    8    1         0.3790793245E+01      0.9304331613E+01
          0                 4           2             4    7     1      -0.2729055691E-02       5    8    1        -0.1550084340E+00      0.4030324854E+00
          0                 5           2             7   13     1       0.1535933064E-03       7   13    1         0.8798757676E-02      0.1023978941E-01
          0                 6           1             7   13     1      -0.6108430311E-05       7   13    1        -0.3596107208E-03      0.3678940692E-03

    ------------------------------------------------
       NWT REQUIRED            6 OUTER ITERATIONS 
       AND A TOTAL OF         11 INNER ITERATIONS.
    ------------------------------------------------

 NO OUTPUT CONTROL FOR STRESS PERIOD    8   TIME STEP    8
 
 SOLVING FOR HEAD 
                                                   Max.-Head-Change                         Max.-Flux-Residual
  Residual-Control   Outer-Iter.   Inner-Iter.     Column Row Layer    Maximum-Head-Change  Column Row Layer    Maximum-Flux-Residual          L2-NORM 
          0                 1           2             5    8     1       0.2274944063E-01       5    8    1         0.1248596173E+01      0.3064000120E+01
          0                 2           2             4    7     1      -0.2146645304E+00       5    8    1        -0.1161082598E+02      0.2842749075E+02
          0                 3           2             4    7     1       0.1461759582E-01       5    6    1         0.8125679193E+00      0.1992544363E+01
          0                 4           2             4    7     1      -0.5816490717E-03       5    6    1        -0.3322453092E-01      0.8170202578E-01
          0                 5           1             4    7     1       0.7171983080E-05       5    6    1         0.4204048373E-03      0.1077917971E-02

    ------------------------------------------------
       NWT REQUIRED            5 OUTER ITERATIONS 
       AND A TOTAL OF          9 INNER ITERATIONS.
    ------------------------------------------------

 NO OUTPUT CONTROL FOR STRESS PERIOD    8   TIME STEP    9
 
 SOLVING FOR HEAD 
                                                   Max.-Head-Change                         Max.-Flux-Residual
  Residual-Control   Outer-Iter.   Inner-Iter.     Column Row Layer    Maximum-Head-Change  Column Row Layer    Maximum-Flux-Residual          L2-NORM 
          0                 1           2             5    8     1       0.2760634658E-01       5    8    1         0.1515354180E+01      0.3622586732E+01
          0                 2           2             4    7     1      -0.9493230024E-01       5    8    1        -0.5202973226E+01      0.1270563797E+02
          0                 3           2             4    7     1       0.6859712168E-01       5    8    1         0.3792520234E+01      0.9307722927E+01
          0                 4           2             4    7     1      -0.2729572652E-02       5    8    1        -0.1550800017E+00      0.4029434693E+00
          0                 5           2             7   13     1       0.1526828938E-03       7   13    1         0.8746620768E-02      0.1019663383E-01
          0                 6           1             7   13     1      -0.6072009939E-05       7   13    1        -0.3574671341E-03      0.3656229030E-03

    ------------------------------------------------
       NWT REQUIRED            6 OUTER ITERATIONS 
       AND A TOTAL OF         11 INNER ITERATIONS.
    ------------------------------------------------

 OUTPUT CONTROL FOR STRESS PERIOD    8   TIME STEP   10
    PRINT BUDGET
    SAVE BUDGET
 UBDSV1 SAVING "         STORAGE" ON UNIT 102 AT TIME STEP 10, STRESS PERIOD   8
 UBDSV2 SAVING "   CONSTANT HEAD" ON UNIT 102 AT TIME STEP 10, STRESS PERIOD   8
 UBDSV1 SAVING "FLOW RIGHT FACE " ON UNIT 102 AT TIME STEP 10, STRESS PERIOD   8
 UBDSV1 SAVING "FLOW FRONT FACE " ON UNIT 102 AT TIME STEP 10, STRESS PERIOD   8

  HEAD DEP BOUNDS   PERIOD    8   STEP    10
 BOUNDARY      1   LAYER   1   ROW    13   COL     1   RATE   -0.291267    
 BOUNDARY      2   LAYER   1   ROW    14   COL     9   RATE    0.285764    



 STREAM LISTING     PERIOD      8   STEP       10

 LAYER ROW COL. STREAM  RCH.  FLOW INTO     FLOW TO   FLOW OUT OF   OVRLND.     DIRECT     STREAM       STREAM     STREAM     STREAM   STREAMBED  STREAMBED
                SEG.NO.  NO.  STRM. RCH.    AQUIFER    STRM. RCH.    RUNOFF     PRECIP       ET          HEAD       DEPTH      WIDTH   CONDCTNC.   GRADIENT

   1    1    1     1     1    5.6250E+01  3.5875E-01   5.5891E+01  0.000E+00  0.000E+00  0.000E+00  1.09453E+03  1.479E+00  1.780E+01  8.010E-02  1.493E+00
   1    2    2     1     2    5.5891E+01  5.5550E-01   5.5336E+01  0.000E+00  0.000E+00  0.000E+00  1.08953E+03  1.473E+00  1.774E+01  1.242E-01  1.491E+00
   1    3    3     1     3    5.5336E+01  4.7368E-01   5.4862E+01  0.000E+00  0.000E+00  0.000E+00  1.08389E+03  1.467E+00  1.767E+01  1.060E-01  1.489E+00
   1    3    4     1     4    5.4862E+01  4.3613E-01   5.4426E+01  0.000E+00  0.000E+00  0.000E+00  1.07887E+03  1.461E+00  1.762E+01  9.777E-02  1.487E+00
   1    4    5     2     1    5.2426E+01  3.8056E-01   5.2046E+01  0.000E+00  0.000E+00  0.000E+00  1.07381E+03  1.879E+00  1.200E+01  7.800E-02  1.626E+00
   1    5    6     2     2    5.2046E+01  2.9230E-01   5.1753E+01  0.000E+00  0.000E+00  0.000E+00  1.06838E+03  1.872E+00  1.200E+01  6.000E-02  1.624E+00
   1    6    6     2     3    5.1753E+01  2.9192E-01   5.1461E+01  0.000E+00  0.000E+00  0.000E+00  1.06366E+03  1.865E+00  1.200E+01  6.000E-02  1.622E+00
   1    7    6     2     4    5.1461E+01  2.9154E-01   5.1170E+01  0.000E+00  0.000E+00  0.000E+00  1.05893E+03  1.859E+00  1.200E+01  6.000E-02  1.620E+00
   1    8    6     2     5    5.1170E+01  2.9116E-01   5.0879E+01  0.000E+00  0.000E+00  0.000E+00  1.05421E+03  1.853E+00  1.200E+01  6.000E-02  1.618E+00
   1    3    5     3     1    2.0000E+00  2.8252E-01   1.7175E+00  0.000E+00  0.000E+00  0.000E+00  1.07555E+03  1.909E+00  9.636E+00  7.227E-02  1.955E+00
   1    3    6     3     2    1.7175E+00  2.4905E-01   1.4684E+00  0.000E+00  0.000E+00  0.000E+00  1.07264E+03  1.727E+00  8.909E+00  6.682E-02  1.864E+00
   1    3    7     3     3    1.4684E+00  1.9718E-01   1.2712E+00  0.000E+00  0.000E+00  0.000E+00  1.06987E+03  1.555E+00  8.218E+00  5.547E-02  1.777E+00
   1    4    8     3     4    1.2712E+00  2.2567E-01   1.0456E+00  0.000E+00  0.000E+00  0.000E+00  1.06682E+03  1.364E+00  7.455E+00  6.709E-02  1.682E+00
   1    5    8     3     5    1.0456E+00  1.5790E-01   8.8768E-01  0.000E+00  0.000E+00  0.000E+00  1.06362E+03  1.164E+00  6.655E+00  4.991E-02  1.582E+00
   1    6    8     3     6    8.8768E-01  5.5980E-02   8.3170E-01  0.000E+00  0.000E+00  0.000E+00  1.06158E+03  1.036E+00  6.145E+00  1.844E-02  1.518E+00
   1    5   10     4     1    1.0000E+01  9.0919E-02   9.9091E+00  0.000E+00  0.000E+00  0.000E+00  1.07836E+03  6.368E-01  1.000E+01  2.500E-02  1.212E+00
   1    5    9     4     2    9.9091E+00  1.8158E-01   9.7275E+00  0.000E+00  0.000E+00  0.000E+00  1.07154E+03  6.315E-01  1.000E+01  5.000E-02  1.211E+00
   1    6    8     4     3    9.7275E+00  1.2689E-01   9.6006E+00  0.000E+00  0.000E+00  0.000E+00  1.06381E+03  6.256E-01  1.000E+01  3.500E-02  1.209E+00
   1    6    8     5     1    1.0432E+01  2.2686E-01   1.0205E+01  0.000E+00  0.000E+00  0.000E+00  1.05868E+03  6.790E-01  1.542E+01  6.166E-02  1.226E+00
   1    7    7     5     2    1.0205E+01  2.7894E-01   9.9265E+00  0.000E+00  0.000E+00  0.000E+00  1.05417E+03  6.732E-01  1.519E+01  7.594E-02  1.224E+00
   1    8    7     5     3    9.9265E+00  1.9221E-01   9.7343E+00  0.000E+00  0.000E+00  0.000E+00  1.04992E+03  6.676E-01  1.497E+01  5.241E-02  1.223E+00
   1    8    6     5     4    9.7343E+00  1.3577E-01   9.5985E+00  0.000E+00  0.000E+00  0.000E+00  1.04691E+03  6.637E-01  1.482E+01  3.706E-02  1.221E+00
   1    9    6     6     1    9.5985E+00  2.2097E-01   9.3776E+00  0.000E+00  0.000E+00  0.000E+00  1.04341E+03  6.828E-01  1.200E+01  6.000E-02  1.228E+00
   1   10    7     6     2    9.3776E+00  2.2039E-01   9.1572E+00  0.000E+00  0.000E+00  0.000E+00  1.03885E+03  6.732E-01  1.200E+01  6.000E-02  1.224E+00
   1   11    7     6     3    9.1572E+00  2.1981E-01   8.9374E+00  0.000E+00  0.000E+00  0.000E+00  1.03430E+03  6.636E-01  1.200E+01  6.000E-02  1.221E+00
   1   12    7     6     4    8.9374E+00  2.1923E-01   8.7181E+00  0.000E+00  0.000E+00  0.000E+00  1.02974E+03  6.539E-01  1.200E+01  6.000E-02  1.218E+00
   1   13    7     6     5    8.7181E+00 -1.3859E-01   8.8567E+00  0.000E+00  0.000E+00  0.000E+00  1.02656E+03  6.521E-01  1.200E+01  2.400E-01 -1.925E-01
   1   14    9     7     1    1.5000E+02  1.3359E+00   1.4866E+02  0.000E+00  0.000E+00  0.000E+00  1.03987E+03  2.288E+00  5.529E+01  5.593E-01  7.962E-01
   1   13    8     7     2    1.4866E+02  1.8186E+00   1.4685E+02  0.000E+00  0.000E+00  0.000E+00  1.03478E+03  2.279E+00  5.526E+01  6.148E-01  9.861E-01
   1   13    7     7     3    1.4685E+02  1.4249E+00   1.4542E+02  0.000E+00  0.000E+00  0.000E+00  1.02969E+03  2.271E+00  5.522E+01  5.585E-01  8.505E-01
   1   13    6     8     1    1.5428E+02  7.7677E-01   1.5350E+02  0.000E+00  0.000E+00  0.000E+00  1.02472E+03  2.844E+00  4.124E+01  4.202E-01  6.161E-01
   1   13    5     8     2    1.5350E+02  5.3078E-02   1.5345E+02  0.000E+00  0.000E+00  0.000E+00  1.01847E+03  2.841E+00  4.120E+01  4.198E-01  4.215E-02
   1   13    4     8     3    1.5345E+02 -2.9785E+00   1.5643E+02  0.000E+00  0.000E+00  0.000E+00  1.01223E+03  2.851E+00  4.134E+01  4.213E+00 -2.357E-01
   1   13    3     8     4    1.5643E+02 -4.0282E+00   1.6045E+02  0.000E+00  0.000E+00  0.000E+00  1.00600E+03  2.875E+00  4.169E+01  4.248E+00 -3.161E-01
   1   13    2     8     5    1.6045E+02 -2.9516E+00   1.6341E+02  0.000E+00  0.000E+00  0.000E+00  9.99774E+02  2.899E+00  4.203E+01  4.283E+00 -2.297E-01
   1   13    1     8     6    1.6341E+02 -2.2588E+00   1.6566E+02  0.000E+00  0.000E+00  0.000E+00  9.94791E+02  2.916E+00  4.229E+01  2.585E+00 -2.912E-01
   1    8    6     9     1    5.0879E+01  0.0000E+00   5.0879E+01  0.000E+00  0.000E+00  0.000E+00  1.08476E+03  6.014E+00  4.000E+00  0.000E+00  3.005E+00
   1    8    5     9     2    5.0879E+01  0.0000E+00   5.0879E+01  0.000E+00  0.000E+00  0.000E+00  1.08426E+03  6.014E+00  4.000E+00  0.000E+00  3.005E+00



 UBDSV3 SAVING "           GW ET" ON UNIT  61 AT TIME STEP 10, STRESS PERIOD   8
 UBDSV3 SAVING "    UZF RECHARGE" ON UNIT  61 AT TIME STEP 10, STRESS PERIOD   8
 UBDSV3 SAVING " SURFACE LEAKAGE" ON UNIT  61 AT TIME STEP 10, STRESS PERIOD   8
 UBDSV3 SAVING "       HORT+DUNN" ON UNIT  61 AT TIME STEP 10, STRESS PERIOD   8
 UBDSV3 SAVING "  STORAGE CHANGE" ON UNIT  61 AT TIME STEP 10, STRESS PERIOD   8


UNSATURATED ZONE PACKAGE VOLUMETRIC BUDGET FOR  TIME STEP    10 STRESS PERIOD    8
  ------------------------------------------------------------------------------



     CUMULATIVE VOLUMES      L**3       RATES FOR THIS TIME STEP      L**3/T
     ------------------                 ------------------------

           IN:                                      IN:
           ---                                      ---
        INFILTRATION =   181809526.2004          INFILTRATION =          61.4657

          OUT:                                     OUT:
          ----                                     ----
              UZF ET =   155134167.8346                UZF ET =          60.8175
        UZF RECHARGE =       73224.0000          UZF RECHARGE =       0.0000E+00

            IN - OUT =    26602134.3658              IN - OUT =           0.6482

          STORAGE:                                 STORAGE:
          --------                                 --------
      STORAGE CHANGE =    26602119.5289        STORAGE CHANGE =           0.6482

 PERCENT DISCREPANCY IS DIFFERENCE BETWEEN IN-OUT MINUS CHANGE IN STORAGE
 DIVIDED BY THE AVERAGE OF IN AND OUT TIMES 100

 PERCENT DISCREPANCY =           0.00     PERCENT DISCREPANCY =           0.00






 

            AG WELLS      PERIOD    8   STEP  10
 AG WELL      1   LAYER   1   ROW     6   COL     4   RATE    -1.62310    
 AG WELL      2   LAYER   1   ROW     6   COL     5   RATE    -1.62310    
 AG WELL      3   LAYER   1   ROW     7   COL     4   RATE    -1.62310    
 AG WELL      4   LAYER   1   ROW     7   COL     5   RATE    -1.62310    
 AG WELL      5   LAYER   1   ROW     8   COL     4   RATE    -1.62310    
 AG WELL      6   LAYER   1   ROW     8   COL     5   RATE    -1.62310    
 
 

   DIVERSION SEGMENTS     PERIOD    8   STEP  10
 SEGMENT      9   RATE     50.8787    
 
 

        SW IRRIGATION     PERIOD    8   STEP  10
 SEGMENT      9   ROW     6   COL     4   RATE     8.47995    
 SEGMENT      9   ROW     6   COL     5   RATE     8.47995    
 SEGMENT      9   ROW     7   COL     4   RATE     8.47995    
 SEGMENT      9   ROW     7   COL     5   RATE     8.47995    
 SEGMENT      9   ROW     8   COL     4   RATE     8.47995    
 SEGMENT      9   ROW     8   COL     5   RATE     8.47995    
 
 

        GW IRRIGATION     PERIOD    8   STEP  10
 AG WELL      1   ROW     6   COL     4   RATE     1.62310    
 AG WELL      2   ROW     6   COL     5   RATE     1.62310    
 AG WELL      3   ROW     7   COL     4   RATE     1.62310    
 AG WELL      4   ROW     7   COL     5   RATE     1.62310    
 AG WELL      5   ROW     8   COL     4   RATE     1.62310    
 AG WELL      6   ROW     8   COL     5   RATE     1.62310    
 
1
  VOLUMETRIC BUDGET FOR AGRICULTURAL FIELDS AT  END OF TIME STEP   10, STRESS PERIOD   8
  ------------------------------------------------------------------------------

     CUMULATIVE VOLUMES      L**3       RATES FOR THIS TIME STEP      L**3/T
     ------------------                 ------------------------

           IN:                                      IN:
           ---                                      ---
               AG WELLS  =    34487064.0000                 AG WELLS  =           9.7386
      DIVERSION SEGMENTS =   133130048.0000        DIVERSION SEGMENTS =          50.8787
           GW IRRIGATION =           0.0000             GW IRRIGATION =           0.0000
           SW IRRIGATION =           0.0000             SW IRRIGATION =           0.0000
        SYSTEM LOSSES GW =           0.0000          SYSTEM LOSSES GW =           0.0000
        SYSTEM LOSSES SW =           0.0000          SYSTEM LOSSES SW =           0.0000

                TOTAL IN =   167617120.0000                  TOTAL IN =          60.6172

          OUT:                                     OUT:
          ----                                     ----
               AG WELLS  =           0.0000                 AG WELLS  =           0.0000
      DIVERSION SEGMENTS =           0.0000        DIVERSION SEGMENTS =           0.0000
           GW IRRIGATION =    34487064.0000             GW IRRIGATION =           9.7386
           SW IRRIGATION =   133132672.0000             SW IRRIGATION =          50.8797
        SYSTEM LOSSES GW =           0.0000          SYSTEM LOSSES GW =           0.0000
        SYSTEM LOSSES SW =           0.0000          SYSTEM LOSSES SW =           0.0000

               TOTAL OUT =   167619744.0000                 TOTAL OUT =          60.6182

                IN - OUT =       -2624.0000                  IN - OUT =      -1.0147E-03

     PERCENT DISCREPANCY =          -0.00         PERCENT DISCREPANCY =          -0.00



1
  VOLUMETRIC BUDGET FOR ENTIRE MODEL AT END OF TIME STEP   10, STRESS PERIOD   8
  ------------------------------------------------------------------------------

     CUMULATIVE VOLUMES      L**3       RATES FOR THIS TIME STEP      L**3/T
     ------------------                 ------------------------

           IN:                                      IN:
           ---                                      ---
             STORAGE     =    49999476.0000               STORAGE     =          11.2692
       CONSTANT HEAD     =           0.0000         CONSTANT HEAD     =           0.0000
     HEAD DEP BOUNDS     =     4783869.5000       HEAD DEP BOUNDS     =           0.2858
      STREAM LEAKAGE     =   204948064.0000        STREAM LEAKAGE     =          12.0626
        UZF RECHARGE     =       73223.9531          UZF RECHARGE     =           0.0000
               GW ET     =           0.0000                 GW ET     =           0.0000
     SURFACE LEAKAGE     =           0.0000       SURFACE LEAKAGE     =           0.0000
           AG WELLS      =           0.0000             AG WELLS      =           0.0000

                TOTAL IN =   259804624.0000                  TOTAL IN =          23.6176

          OUT:                                     OUT:
          ----                                     ----
             STORAGE     =    40493824.0000               STORAGE     =           1.2320
       CONSTANT HEAD     =           0.0000         CONSTANT HEAD     =           0.0000
     HEAD DEP BOUNDS     =     4888894.0000       HEAD DEP BOUNDS     =           0.2913
      STREAM LEAKAGE     =   178387152.0000        STREAM LEAKAGE     =          12.3557
        UZF RECHARGE     =           0.0000          UZF RECHARGE     =           0.0000
               GW ET     =     1552216.2500                 GW ET     =           0.0000
     SURFACE LEAKAGE     =           0.0000       SURFACE LEAKAGE     =           0.0000
           AG WELLS      =    34487064.0000             AG WELLS      =           9.7386

               TOTAL OUT =   259809152.0000                 TOTAL OUT =          23.6176

                IN - OUT =       -4528.0000                  IN - OUT =       1.1444E-05

     PERCENT DISCREPANCY =          -0.00         PERCENT DISCREPANCY =           0.00






         TIME SUMMARY AT END OF TIME STEP   10 IN STRESS PERIOD    8
                    SECONDS     MINUTES      HOURS       DAYS        YEARS
                    -----------------------------------------------------------
   TIME STEP LENGTH  87667.      1461.1      24.352      1.0147     2.77799E-03
 STRESS PERIOD TIME 8.76667E+05  14611.      243.52      10.147     2.77799E-02
         TOTAL TIME 1.67431E+07 2.79052E+05  4650.9      193.79     0.53056    
1
 
 SOLVING FOR HEAD 
                                                   Max.-Head-Change                         Max.-Flux-Residual
  Residual-Control   Outer-Iter.   Inner-Iter.     Column Row Layer    Maximum-Head-Change  Column Row Layer    Maximum-Flux-Residual          L2-NORM 
          0                 1           2             5    8     1       0.2701250107E-01       5    8    1         0.1481662702E+01      0.3595191730E+01
          0                 2           2             4    7     1      -0.2148566498E+00       5    8    1        -0.1163413325E+02      0.2847311231E+02
          0                 3           2             4    7     1       0.1463068077E-01       5    6    1         0.8142002369E+00      0.1995687989E+01
          0                 4           2             4    7     1      -0.5821697223E-03       5    6    1        -0.3329210891E-01      0.8182566341E-01
          0                 5           1             4    7     1       0.7178402874E-05       5    6    1         0.4213166735E-03      0.1078492678E-02

    ------------------------------------------------
       NWT REQUIRED            5 OUTER ITERATIONS 
       AND A TOTAL OF          9 INNER ITERATIONS.
    ------------------------------------------------

 NO OUTPUT CONTROL FOR STRESS PERIOD    8   TIME STEP   11
 
 SOLVING FOR HEAD 
                                                   Max.-Head-Change                         Max.-Flux-Residual
  Residual-Control   Outer-Iter.   Inner-Iter.     Column Row Layer    Maximum-Head-Change  Column Row Layer    Maximum-Flux-Residual          L2-NORM 
          0                 1           2             5    8     1       0.3166017045E-01       5    8    1         0.1736785841E+01      0.4136463348E+01
          0                 2           2             5    7     1      -0.9513122151E-01       5    8    1        -0.5225117089E+01      0.1275014073E+02
          0                 3           2             4    7     1       0.6860875417E-01       5    8    1         0.3793972485E+01      0.9310625312E+01
          0                 4           2             4    7     1      -0.2730035472E-02       5    8    1        -0.1551401848E+00      0.4028463029E+00
          0                 5           2             7   13     1       0.1518200938E-03       7   13    1         0.8697382089E-02      0.1015542887E-01
          0                 6           1             7   13     1      -0.6037862689E-05       7   13    1        -0.3554708696E-03      0.3636923697E-03

    ------------------------------------------------
       NWT REQUIRED            6 OUTER ITERATIONS 
       AND A TOTAL OF         11 INNER ITERATIONS.
    ------------------------------------------------

 NO OUTPUT CONTROL FOR STRESS PERIOD    8   TIME STEP   12
 
 SOLVING FOR HEAD 
                                                   Max.-Head-Change                         Max.-Flux-Residual
  Residual-Control   Outer-Iter.   Inner-Iter.     Column Row Layer    Maximum-Head-Change  Column Row Layer    Maximum-Flux-Residual          L2-NORM 
          0                 1           2             5    8     1       0.3087214449E-01       5    8    1         0.1692311322E+01      0.4085712591E+01
          0                 2           2             4    7     1      -0.2150574036E+00       5    8    1        -0.1165530366E+02      0.2851609635E+02
          0                 3           2             4    7     1       0.1464435322E-01       5    6    1         0.8156881995E+00      0.1998651642E+01
          0                 4           2             4    7     1      -0.5827137524E-03       5    6    1        -0.3335368297E-01      0.8194259859E-01
          0                 5           1             4    7     1       0.7185111218E-05       5    6    1         0.4221456770E-03      0.1078950028E-02

    ------------------------------------------------
       NWT REQUIRED            5 OUTER ITERATIONS 
       AND A TOTAL OF          9 INNER ITERATIONS.
    ------------------------------------------------

 NO OUTPUT CONTROL FOR STRESS PERIOD    8   TIME STEP   13
 
 SOLVING FOR HEAD 
                                                   Max.-Head-Change                         Max.-Flux-Residual
  Residual-Control   Outer-Iter.   Inner-Iter.     Column Row Layer    Maximum-Head-Change  Column Row Layer    Maximum-Flux-Residual          L2-NORM 
          0                 1           2             5    8     1       0.3533634675E-01       5    8    1         0.1937246614E+01      0.4610007830E+01
          0                 2           2             5    7     1      -0.9542078283E-01       5    8    1        -0.5245163864E+01      0.1279185624E+02
          0                 3           2             4    7     1       0.6862268741E-01       5    8    1         0.3795376379E+01      0.9313575934E+01
          0                 4           2             4    7     1      -0.2730589851E-02       5    8    1        -0.1551981281E+00      0.4027622880E+00
          0                 5           2             7   13     1       0.1509994232E-03       7   13    1         0.8649926694E-02      0.1011607638E-01
          0                 6           1             7   13     1      -0.6005322419E-05       7   13    1        -0.3535060778E-03      0.3616969864E-03

    ------------------------------------------------
       NWT REQUIRED            6 OUTER ITERATIONS 
       AND A TOTAL OF         11 INNER ITERATIONS.
    ------------------------------------------------

 NO OUTPUT CONTROL FOR STRESS PERIOD    8   TIME STEP   14
 
 SOLVING FOR HEAD 
                                                   Max.-Head-Change                         Max.-Flux-Residual
  Residual-Control   Outer-Iter.   Inner-Iter.     Column Row Layer    Maximum-Head-Change  Column Row Layer    Maximum-Flux-Residual          L2-NORM 
          0                 1           2             5    8     1       0.3437816781E-01       5    8    1         0.1883336951E+01      0.4538963560E+01
          0                 2           2             4    7     1      -0.2152609585E+00       5    8    1        -0.1167440686E+02      0.2855618747E+02
          0                 3           2             4    7     1       0.1465823811E-01       5    8    1         0.8207018318E+00      0.2002929723E+01
          0                 4           2             4    7     1      -0.5832661425E-03       5    8    1        -0.3355985283E-01      0.8211330854E-01
          0                 5           1             4    7     1       0.7191922617E-05       5    8    1         0.4248339415E-03      0.1080265593E-02

    ------------------------------------------------
       NWT REQUIRED            5 OUTER ITERATIONS 
       AND A TOTAL OF          9 INNER ITERATIONS.
    ------------------------------------------------

 OUTPUT CONTROL FOR STRESS PERIOD    8   TIME STEP   15
    PRINT BUDGET
    SAVE BUDGET
 UBDSV1 SAVING "         STORAGE" ON UNIT 102 AT TIME STEP 15, STRESS PERIOD   8
 UBDSV2 SAVING "   CONSTANT HEAD" ON UNIT 102 AT TIME STEP 15, STRESS PERIOD   8
 UBDSV1 SAVING "FLOW RIGHT FACE " ON UNIT 102 AT TIME STEP 15, STRESS PERIOD   8
 UBDSV1 SAVING "FLOW FRONT FACE " ON UNIT 102 AT TIME STEP 15, STRESS PERIOD   8

  HEAD DEP BOUNDS   PERIOD    8   STEP    15
 BOUNDARY      1   LAYER   1   ROW    13   COL     1   RATE   -0.290401    
 BOUNDARY      2   LAYER   1   ROW    14   COL     9   RATE    0.285763    



 STREAM LISTING     PERIOD      8   STEP       15

 LAYER ROW COL. STREAM  RCH.  FLOW INTO     FLOW TO   FLOW OUT OF   OVRLND.     DIRECT     STREAM       STREAM     STREAM     STREAM   STREAMBED  STREAMBED
                SEG.NO.  NO.  STRM. RCH.    AQUIFER    STRM. RCH.    RUNOFF     PRECIP       ET          HEAD       DEPTH      WIDTH   CONDCTNC.   GRADIENT

   1    1    1     1     1    5.6250E+01  3.5874E-01   5.5891E+01  0.000E+00  0.000E+00  0.000E+00  1.09453E+03  1.479E+00  1.780E+01  8.010E-02  1.493E+00
   1    2    2     1     2    5.5891E+01  5.5550E-01   5.5335E+01  0.000E+00  0.000E+00  0.000E+00  1.08953E+03  1.473E+00  1.774E+01  1.242E-01  1.491E+00
   1    3    3     1     3    5.5335E+01  4.7368E-01   5.4862E+01  0.000E+00  0.000E+00  0.000E+00  1.08389E+03  1.467E+00  1.767E+01  1.060E-01  1.489E+00
   1    3    4     1     4    5.4862E+01  4.3613E-01   5.4426E+01  0.000E+00  0.000E+00  0.000E+00  1.07887E+03  1.461E+00  1.762E+01  9.777E-02  1.487E+00
   1    4    5     2     1    5.2426E+01  3.8056E-01   5.2045E+01  0.000E+00  0.000E+00  0.000E+00  1.07381E+03  1.879E+00  1.200E+01  7.800E-02  1.626E+00
   1    5    6     2     2    5.2045E+01  2.9230E-01   5.1753E+01  0.000E+00  0.000E+00  0.000E+00  1.06838E+03  1.872E+00  1.200E+01  6.000E-02  1.624E+00
   1    6    6     2     3    5.1753E+01  2.9192E-01   5.1461E+01  0.000E+00  0.000E+00  0.000E+00  1.06366E+03  1.865E+00  1.200E+01  6.000E-02  1.622E+00
   1    7    6     2     4    5.1461E+01  2.9154E-01   5.1169E+01  0.000E+00  0.000E+00  0.000E+00  1.05893E+03  1.859E+00  1.200E+01  6.000E-02  1.620E+00
   1    8    6     2     5    5.1169E+01  2.9116E-01   5.0878E+01  0.000E+00  0.000E+00  0.000E+00  1.05421E+03  1.853E+00  1.200E+01  6.000E-02  1.618E+00
   1    3    5     3     1    2.0000E+00  2.8252E-01   1.7175E+00  0.000E+00  0.000E+00  0.000E+00  1.07555E+03  1.909E+00  9.636E+00  7.227E-02  1.955E+00
   1    3    6     3     2    1.7175E+00  2.4905E-01   1.4684E+00  0.000E+00  0.000E+00  0.000E+00  1.07264E+03  1.727E+00  8.909E+00  6.682E-02  1.864E+00
   1    3    7     3     3    1.4684E+00  1.9718E-01   1.2712E+00  0.000E+00  0.000E+00  0.000E+00  1.06987E+03  1.555E+00  8.218E+00  5.547E-02  1.777E+00
   1    4    8     3     4    1.2712E+00  2.2567E-01   1.0456E+00  0.000E+00  0.000E+00  0.000E+00  1.06682E+03  1.364E+00  7.455E+00  6.709E-02  1.682E+00
   1    5    8     3     5    1.0456E+00  1.5790E-01   8.8768E-01  0.000E+00  0.000E+00  0.000E+00  1.06362E+03  1.164E+00  6.655E+00  4.991E-02  1.582E+00
   1    6    8     3     6    8.8768E-01  5.5980E-02   8.3170E-01  0.000E+00  0.000E+00  0.000E+00  1.06158E+03  1.036E+00  6.145E+00  1.844E-02  1.518E+00
   1    5   10     4     1    1.0000E+01  9.0919E-02   9.9091E+00  0.000E+00  0.000E+00  0.000E+00  1.07836E+03  6.368E-01  1.000E+01  2.500E-02  1.212E+00
   1    5    9     4     2    9.9091E+00  1.8158E-01   9.7275E+00  0.000E+00  0.000E+00  0.000E+00  1.07154E+03  6.315E-01  1.000E+01  5.000E-02  1.211E+00
   1    6    8     4     3    9.7275E+00  1.2689E-01   9.6006E+00  0.000E+00  0.000E+00  0.000E+00  1.06381E+03  6.256E-01  1.000E+01  3.500E-02  1.209E+00
   1    6    8     5     1    1.0432E+01  2.2686E-01   1.0205E+01  0.000E+00  0.000E+00  0.000E+00  1.05868E+03  6.790E-01  1.542E+01  6.166E-02  1.226E+00
   1    7    7     5     2    1.0205E+01  2.7894E-01   9.9265E+00  0.000E+00  0.000E+00  0.000E+00  1.05417E+03  6.732E-01  1.519E+01  7.594E-02  1.224E+00
   1    8    7     5     3    9.9265E+00  1.9221E-01   9.7343E+00  0.000E+00  0.000E+00  0.000E+00  1.04992E+03  6.676E-01  1.497E+01  5.241E-02  1.223E+00
   1    8    6     5     4    9.7343E+00  1.3577E-01   9.5985E+00  0.000E+00  0.000E+00  0.000E+00  1.04691E+03  6.637E-01  1.482E+01  3.706E-02  1.221E+00
   1    9    6     6     1    9.5985E+00  2.2097E-01   9.3776E+00  0.000E+00  0.000E+00  0.000E+00  1.04341E+03  6.828E-01  1.200E+01  6.000E-02  1.228E+00
   1   10    7     6     2    9.3776E+00  2.2039E-01   9.1572E+00  0.000E+00  0.000E+00  0.000E+00  1.03885E+03  6.732E-01  1.200E+01  6.000E-02  1.224E+00
   1   11    7     6     3    9.1572E+00  2.1981E-01   8.9374E+00  0.000E+00  0.000E+00  0.000E+00  1.03430E+03  6.636E-01  1.200E+01  6.000E-02  1.221E+00
   1   12    7     6     4    8.9374E+00  2.1923E-01   8.7181E+00  0.000E+00  0.000E+00  0.000E+00  1.02974E+03  6.539E-01  1.200E+01  6.000E-02  1.218E+00
   1   13    7     6     5    8.7181E+00 -1.3669E-01   8.8548E+00  0.000E+00  0.000E+00  0.000E+00  1.02656E+03  6.520E-01  1.200E+01  2.400E-01 -1.899E-01
   1   14    9     7     1    1.5000E+02  1.3359E+00   1.4866E+02  0.000E+00  0.000E+00  0.000E+00  1.03987E+03  2.288E+00  5.529E+01  5.593E-01  7.962E-01
   1   13    8     7     2    1.4866E+02  1.8188E+00   1.4685E+02  0.000E+00  0.000E+00  0.000E+00  1.03478E+03  2.279E+00  5.526E+01  6.148E-01  9.862E-01
   1   13    7     7     3    1.4685E+02  1.4293E+00   1.4542E+02  0.000E+00  0.000E+00  0.000E+00  1.02969E+03  2.271E+00  5.522E+01  5.585E-01  8.531E-01
   1   13    6     8     1    1.5427E+02  7.8105E-01   1.5349E+02  0.000E+00  0.000E+00  0.000E+00  1.02472E+03  2.844E+00  4.124E+01  4.202E-01  6.196E-01
   1   13    5     8     2    1.5349E+02  5.7327E-02   1.5343E+02  0.000E+00  0.000E+00  0.000E+00  1.01847E+03  2.841E+00  4.120E+01  4.198E-01  4.552E-02
   1   13    4     8     3    1.5343E+02 -2.9006E+00   1.5633E+02  0.000E+00  0.000E+00  0.000E+00  1.01223E+03  2.851E+00  4.134E+01  4.212E+00 -2.295E-01
   1   13    3     8     4    1.5633E+02 -3.9536E+00   1.6029E+02  0.000E+00  0.000E+00  0.000E+00  1.00600E+03  2.874E+00  4.168E+01  4.247E+00 -3.103E-01
   1   13    2     8     5    1.6029E+02 -2.8501E+00   1.6314E+02  0.000E+00  0.000E+00  0.000E+00  9.99772E+02  2.897E+00  4.201E+01  4.281E+00 -2.219E-01
   1   13    1     8     6    1.6314E+02 -2.2035E+00   1.6534E+02  0.000E+00  0.000E+00  0.000E+00  9.94789E+02  2.914E+00  4.226E+01  2.584E+00 -2.843E-01
   1    8    6     9     1    5.0878E+01  0.0000E+00   5.0878E+01  0.000E+00  0.000E+00  0.000E+00  1.08476E+03  6.014E+00  4.000E+00  0.000E+00  3.005E+00
   1    8    5     9     2    5.0878E+01  0.0000E+00   5.0878E+01  0.000E+00  0.000E+00  0.000E+00  1.08426E+03  6.014E+00  4.000E+00  0.000E+00  3.005E+00



 UBDSV3 SAVING "           GW ET" ON UNIT  61 AT TIME STEP 15, STRESS PERIOD   8
 UBDSV3 SAVING "    UZF RECHARGE" ON UNIT  61 AT TIME STEP 15, STRESS PERIOD   8
 UBDSV3 SAVING " SURFACE LEAKAGE" ON UNIT  61 AT TIME STEP 15, STRESS PERIOD   8
 UBDSV3 SAVING "       HORT+DUNN" ON UNIT  61 AT TIME STEP 15, STRESS PERIOD   8
 UBDSV3 SAVING "  STORAGE CHANGE" ON UNIT  61 AT TIME STEP 15, STRESS PERIOD   8


UNSATURATED ZONE PACKAGE VOLUMETRIC BUDGET FOR  TIME STEP    15 STRESS PERIOD    8
  ------------------------------------------------------------------------------



     CUMULATIVE VOLUMES      L**3       RATES FOR THIS TIME STEP      L**3/T
     ------------------                 ------------------------

           IN:                                      IN:
           ---                                      ---
        INFILTRATION =   224315615.9298          INFILTRATION =         120.6430

          OUT:                                     OUT:
          ----                                     ----
              UZF ET =   181792504.0640                UZF ET =          60.8175
        UZF RECHARGE =       73224.0000          UZF RECHARGE =       0.0000E+00

            IN - OUT =    42449887.8658              IN - OUT =          59.8255

          STORAGE:                                 STORAGE:
          --------                                 --------
      STORAGE CHANGE =    42449871.8229        STORAGE CHANGE =          59.8255

 PERCENT DISCREPANCY IS DIFFERENCE BETWEEN IN-OUT MINUS CHANGE IN STORAGE
 DIVIDED BY THE AVERAGE OF IN AND OUT TIMES 100

 PERCENT DISCREPANCY =           0.00     PERCENT DISCREPANCY =           0.00






 

            AG WELLS      PERIOD    8   STEP  15
 AG WELL      1   LAYER   1   ROW     6   COL     4   RATE    -11.4861    
 AG WELL      2   LAYER   1   ROW     6   COL     5   RATE    -11.4861    
 AG WELL      3   LAYER   1   ROW     7   COL     4   RATE    -11.4861    
 AG WELL      4   LAYER   1   ROW     7   COL     5   RATE    -11.4861    
 AG WELL      5   LAYER   1   ROW     8   COL     4   RATE    -11.4861    
 AG WELL      6   LAYER   1   ROW     8   COL     5   RATE    -11.4861    
 
 

   DIVERSION SEGMENTS     PERIOD    8   STEP  15
 SEGMENT      9   RATE     50.8780    
 
 

        SW IRRIGATION     PERIOD    8   STEP  15
 SEGMENT      9   ROW     6   COL     4   RATE     8.47984    
 SEGMENT      9   ROW     6   COL     5   RATE     8.47984    
 SEGMENT      9   ROW     7   COL     4   RATE     8.47984    
 SEGMENT      9   ROW     7   COL     5   RATE     8.47984    
 SEGMENT      9   ROW     8   COL     4   RATE     8.47984    
 SEGMENT      9   ROW     8   COL     5   RATE     8.47984    
 
 

        GW IRRIGATION     PERIOD    8   STEP  15
 AG WELL      1   ROW     6   COL     4   RATE     11.4861    
 AG WELL      2   ROW     6   COL     5   RATE     11.4861    
 AG WELL      3   ROW     7   COL     4   RATE     11.4861    
 AG WELL      4   ROW     7   COL     5   RATE     11.4861    
 AG WELL      5   ROW     8   COL     4   RATE     11.4861    
 AG WELL      6   ROW     8   COL     5   RATE     11.4861    
 
1
  VOLUMETRIC BUDGET FOR AGRICULTURAL FIELDS AT  END OF TIME STEP   15, STRESS PERIOD   8
  ------------------------------------------------------------------------------

     CUMULATIVE VOLUMES      L**3       RATES FOR THIS TIME STEP      L**3/T
     ------------------                 ------------------------

           IN:                                      IN:
           ---                                      ---
               AG WELLS  =    54319632.0000                 AG WELLS  =          68.9164
      DIVERSION SEGMENTS =   155431632.0000        DIVERSION SEGMENTS =          50.8780
           GW IRRIGATION =           0.0000             GW IRRIGATION =           0.0000
           SW IRRIGATION =           0.0000             SW IRRIGATION =           0.0000
        SYSTEM LOSSES GW =           0.0000          SYSTEM LOSSES GW =           0.0000
        SYSTEM LOSSES SW =           0.0000          SYSTEM LOSSES SW =           0.0000

                TOTAL IN =   209751264.0000                  TOTAL IN =         119.7944

          OUT:                                     OUT:
          ----                                     ----
               AG WELLS  =           0.0000                 AG WELLS  =           0.0000
      DIVERSION SEGMENTS =           0.0000        DIVERSION SEGMENTS =           0.0000
           GW IRRIGATION =    54319632.0000             GW IRRIGATION =          68.9164
           SW IRRIGATION =   155434720.0000             SW IRRIGATION =          50.8790
        SYSTEM LOSSES GW =           0.0000          SYSTEM LOSSES GW =           0.0000
        SYSTEM LOSSES SW =           0.0000          SYSTEM LOSSES SW =           0.0000

               TOTAL OUT =   209754352.0000                 TOTAL OUT =         119.7955

                IN - OUT =       -3088.0000                  IN - OUT =      -1.0147E-03

     PERCENT DISCREPANCY =          -0.00         PERCENT DISCREPANCY =          -0.00



1
  VOLUMETRIC BUDGET FOR ENTIRE MODEL AT END OF TIME STEP   15, STRESS PERIOD   8
  ------------------------------------------------------------------------------

     CUMULATIVE VOLUMES      L**3       RATES FOR THIS TIME STEP      L**3/T
     ------------------                 ------------------------

           IN:                                      IN:
           ---                                      ---
             STORAGE     =    70441496.0000               STORAGE     =          70.0251
       CONSTANT HEAD     =           0.0000         CONSTANT HEAD     =           0.0000
     HEAD DEP BOUNDS     =     4909129.5000       HEAD DEP BOUNDS     =           0.2858
      STREAM LEAKAGE     =   210239008.0000        STREAM LEAKAGE     =          12.0758
        UZF RECHARGE     =       73223.9531          UZF RECHARGE     =           0.0000
               GW ET     =           0.0000                 GW ET     =           0.0000
     SURFACE LEAKAGE     =           0.0000       SURFACE LEAKAGE     =           0.0000
           AG WELLS      =           0.0000             AG WELLS      =           0.0000

                TOTAL IN =   285662848.0000                  TOTAL IN =          82.3867

          OUT:                                     OUT:
          ----                                     ----
             STORAGE     =    41061900.0000               STORAGE     =           1.1354
       CONSTANT HEAD     =           0.0000         CONSTANT HEAD     =           0.0000
     HEAD DEP BOUNDS     =     5016332.0000       HEAD DEP BOUNDS     =           0.2904
      STREAM LEAKAGE     =   183717296.0000        STREAM LEAKAGE     =          12.0444
        UZF RECHARGE     =           0.0000          UZF RECHARGE     =           0.0000
               GW ET     =     1552216.2500                 GW ET     =           0.0000
     SURFACE LEAKAGE     =           0.0000       SURFACE LEAKAGE     =           0.0000
           AG WELLS      =    54319632.0000             AG WELLS      =          68.9164

               TOTAL OUT =   285667392.0000                 TOTAL OUT =          82.3867

                IN - OUT =       -4544.0000                  IN - OUT =       4.5776E-05

     PERCENT DISCREPANCY =          -0.00         PERCENT DISCREPANCY =           0.00






         TIME SUMMARY AT END OF TIME STEP   15 IN STRESS PERIOD    8
                    SECONDS     MINUTES      HOURS       DAYS        YEARS
                    -----------------------------------------------------------
   TIME STEP LENGTH  87667.      1461.1      24.352      1.0147     2.77799E-03
 STRESS PERIOD TIME 1.31500E+06  21917.      365.28      15.220     4.16698E-02
         TOTAL TIME 1.71814E+07 2.86357E+05  4772.6      198.86     0.54445    
1
 
 SOLVING FOR HEAD 
                                                   Max.-Head-Change                         Max.-Flux-Residual
  Residual-Control   Outer-Iter.   Inner-Iter.     Column Row Layer    Maximum-Head-Change  Column Row Layer    Maximum-Flux-Residual          L2-NORM 
          0                 1           2             5    8     1       0.3867454632E-01       5    8    1         0.2121990589E+01      0.5048883388E+01
          0                 2           2             5    7     1      -0.9569786917E-01       5    8    1        -0.5263149723E+01      0.1283092741E+02
          0                 3           2             4    7     1       0.6863690199E-01       5    8    1         0.3801915236E+01      0.9318497688E+01
          0                 4           2             4    7     1      -0.2731153404E-02       5    8    1        -0.1554563885E+00      0.4027566826E+00
          0                 5           2             7   13     1       0.1502211032E-03       7   13    1         0.8605357703E-02      0.1007956503E-01
          0                 6           1             7   13     1      -0.5972622580E-05       7   13    1        -0.3515815661E-03      0.3598812165E-03

    ------------------------------------------------
       NWT REQUIRED            6 OUTER ITERATIONS 
       AND A TOTAL OF         11 INNER ITERATIONS.
    ------------------------------------------------

 NO OUTPUT CONTROL FOR STRESS PERIOD    8   TIME STEP   16
 
 SOLVING FOR HEAD 
                                                   Max.-Head-Change                         Max.-Flux-Residual
  Residual-Control   Outer-Iter.   Inner-Iter.     Column Row Layer    Maximum-Head-Change  Column Row Layer    Maximum-Flux-Residual          L2-NORM 
          0                 1           2             5    8     1       0.3754220918E-01       5    8    1         0.2058309015E+01      0.4959175338E+01
          0                 2           2             4    7     1      -0.2154676411E+00       5    6    1        -0.1169068791E+02      0.2859319117E+02
          0                 3           2             4    7     1       0.1467238213E-01       5    8    1         0.8290765669E+00      0.2008535142E+01
          0                 4           2             4    7     1      -0.5838289362E-03       5    8    1        -0.3390636713E-01      0.8234104859E-01
          0                 5           1             4    7     1       0.7198861936E-05       5    8    1         0.4295080068E-03      0.1082296922E-02

    ------------------------------------------------
       NWT REQUIRED            5 OUTER ITERATIONS 
       AND A TOTAL OF          9 INNER ITERATIONS.
    ------------------------------------------------

 NO OUTPUT CONTROL FOR STRESS PERIOD    8   TIME STEP   17
 
 SOLVING FOR HEAD 
                                                   Max.-Head-Change                         Max.-Flux-Residual
  Residual-Control   Outer-Iter.   Inner-Iter.     Column Row Layer    Maximum-Head-Change  Column Row Layer    Maximum-Flux-Residual          L2-NORM 
          0                 1           2             5    8     1       0.4183878394E-01       5    8    1         0.2294406134E+01      0.5457539205E+01
          0                 2           2             5    7     1      -0.9596185867E-01       5    8    1        -0.5280874074E+01      0.1286823762E+02
          0                 3           2             4    7     1       0.6865122829E-01       5    8    1         0.3797894323E+01      0.9318981306E+01
          0                 4           2             4    7     1      -0.2731723450E-02       5    8    1        -0.1552899599E+00      0.4025970848E+00
          0                 5           2             7   13     1       0.1494812611E-03       7   13    1         0.8562993536E-02      0.1004442244E-01
          0                 6           1             7   13     1      -0.5944534377E-05       7   13    1        -0.3499280574E-03      0.3583067610E-03

    ------------------------------------------------
       NWT REQUIRED            6 OUTER ITERATIONS 
       AND A TOTAL OF         11 INNER ITERATIONS.
    ------------------------------------------------

 NO OUTPUT CONTROL FOR STRESS PERIOD    8   TIME STEP   18
 
 SOLVING FOR HEAD 
                                                   Max.-Head-Change                         Max.-Flux-Residual
  Residual-Control   Outer-Iter.   Inner-Iter.     Column Row Layer    Maximum-Head-Change  Column Row Layer    Maximum-Flux-Residual          L2-NORM 
          0                 1           2             5    8     1       0.4056256645E-01       5    8    1         0.2222741447E+01      0.5351822091E+01
          0                 2           2             4    7     1      -0.2156759652E+00       5    8    1        -0.1170834194E+02      0.2862964439E+02
          0                 3           2             4    7     1       0.1468649806E-01       5    8    1         0.8194932383E+00      0.2006555746E+01
          0                 4           2             4    7     1      -0.5843906220E-03       5    8    1        -0.3350975786E-01      0.8225508220E-01
          0                 5           1             4    7     1       0.7205787813E-05       5    6    1         0.4241988843E-03      0.1080769209E-02

    ------------------------------------------------
       NWT REQUIRED            5 OUTER ITERATIONS 
       AND A TOTAL OF          9 INNER ITERATIONS.
    ------------------------------------------------

 NO OUTPUT CONTROL FOR STRESS PERIOD    8   TIME STEP   19
 
 SOLVING FOR HEAD 
                                                   Max.-Head-Change                         Max.-Flux-Residual
  Residual-Control   Outer-Iter.   Inner-Iter.     Column Row Layer    Maximum-Head-Change  Column Row Layer    Maximum-Flux-Residual          L2-NORM 
          0                 1           2             5    8     1       0.4472421811E-01       5    8    1         0.2451357195E+01      0.5836321227E+01
          0                 2           2             5    7     1      -0.9621558178E-01       5    8    1        -0.5296568899E+01      0.1290316670E+02
          0                 3           2             4    7     1       0.6866567304E-01       5    8    1         0.3798992973E+01      0.9321442506E+01
          0                 4           2             4    7     1      -0.2732298206E-02       5    8    1        -0.1553352369E+00      0.4025225269E+00
          0                 5           2             7   13     1       0.1487777970E-03       7   13    1         0.8522735991E-02      0.1001106556E-01
          0                 6           1             7   13     1      -0.5916809754E-05       7   13    1        -0.3482980283E-03      0.3566761704E-03

    ------------------------------------------------
       NWT REQUIRED            6 OUTER ITERATIONS 
       AND A TOTAL OF         11 INNER ITERATIONS.
    ------------------------------------------------

 NO OUTPUT CONTROL FOR STRESS PERIOD    8   TIME STEP   20
 
 SOLVING FOR HEAD 
                                                   Max.-Head-Change                         Max.-Flux-Residual
  Residual-Control   Outer-Iter.   Inner-Iter.     Column Row Layer    Maximum-Head-Change  Column Row Layer    Maximum-Flux-Residual          L2-NORM 
          0                 1           2             5    8     1       0.4332154542E-01       5    8    1         0.2372686232E+01      0.5716517977E+01
          0                 2           2             4    7     1      -0.2158848440E+00       5    8    1        -0.1172333615E+02      0.2866331204E+02
          0                 3           2             4    7     1       0.1470072249E-01       5    8    1         0.8205476145E+00      0.2008880290E+01
          0                 4           2             4    7     1      -0.5849566223E-03       5    8    1        -0.3355334292E-01      0.8234746262E-01
          0                 5           1             4    7     1       0.7212766785E-05       5    6    1         0.4247685572E-03      0.1081347086E-02

    ------------------------------------------------
       NWT REQUIRED            5 OUTER ITERATIONS 
       AND A TOTAL OF          9 INNER ITERATIONS.
    ------------------------------------------------

 NO OUTPUT CONTROL FOR STRESS PERIOD    8   TIME STEP   21
 
 SOLVING FOR HEAD 
                                                   Max.-Head-Change                         Max.-Flux-Residual
  Residual-Control   Outer-Iter.   Inner-Iter.     Column Row Layer    Maximum-Head-Change  Column Row Layer    Maximum-Flux-Residual          L2-NORM 
          0                 1           2             5    8     1       0.4736453673E-01       5    8    1         0.2594731210E+01      0.6188336314E+01
          0                 2           2             5    7     1      -0.9645810261E-01       5    8    1        -0.5310906027E+01      0.1293609660E+02
          0                 3           2             4    7     1       0.6868011926E-01       5    8    1         0.3799996586E+01      0.9323761070E+01
          0                 4           2             4    7     1      -0.2732873026E-02       5    8    1        -0.1553765835E+00      0.4024507393E+00
          0                 5           2             7   13     1       0.1481072879E-03       7   13    1         0.8484286137E-02      0.9979095121E-02
          0                 6           1             7   13     1      -0.5890552575E-05       7   13    1        -0.3467464908E-03      0.3551099091E-03

    ------------------------------------------------
       NWT REQUIRED            6 OUTER ITERATIONS 
       AND A TOTAL OF         11 INNER ITERATIONS.
    ------------------------------------------------

 NO OUTPUT CONTROL FOR STRESS PERIOD    8   TIME STEP   22
 
 SOLVING FOR HEAD 
                                                   Max.-Head-Change                         Max.-Flux-Residual
  Residual-Control   Outer-Iter.   Inner-Iter.     Column Row Layer    Maximum-Head-Change  Column Row Layer    Maximum-Flux-Residual          L2-NORM 
          0                 1           2             5    8     1       0.4585033431E-01       5    8    1         0.2509890097E+01      0.6056093950E+01
          0                 2           2             4    7     1      -0.2160932008E+00       5    8    1        -0.1173705629E+02      0.2869508948E+02
          0                 3           2             4    7     1       0.1471491114E-01       5    8    1         0.8215122026E+00      0.2011074372E+01
          0                 4           2             4    7     1      -0.5855212002E-03       5    8    1        -0.3359319702E-01      0.8243465057E-01
          0                 5           1             4    7     1       0.7219728731E-05       5    6    1         0.4252914539E-03      0.1081859775E-02

    ------------------------------------------------
       NWT REQUIRED            5 OUTER ITERATIONS 
       AND A TOTAL OF          9 INNER ITERATIONS.
    ------------------------------------------------

 NO OUTPUT CONTROL FOR STRESS PERIOD    8   TIME STEP   23
 
 SOLVING FOR HEAD 
                                                   Max.-Head-Change                         Max.-Flux-Residual
  Residual-Control   Outer-Iter.   Inner-Iter.     Column Row Layer    Maximum-Head-Change  Column Row Layer    Maximum-Flux-Residual          L2-NORM 
          0                 1           2             5    8     1       0.4978833201E-01       5    8    1         0.2726129523E+01      0.6516292648E+01
          0                 2           2             5    7     1      -0.9668978203E-01       5    8    1        -0.5324045595E+01      0.1296718495E+02
          0                 3           2             4    7     1       0.6869449940E-01       5    8    1         0.3800916370E+01      0.9325948888E+01
          0                 4           2             4    7     1      -0.2733445222E-02       5    8    1        -0.1554144639E+00      0.4023816861E+00
          0                 5           2             7   13     1       0.1474699197E-03       7   13    1         0.8447786457E-02      0.9948817684E-02
          0                 6           1             7   13     1      -0.5865135843E-05       7   13    1        -0.3452492360E-03      0.3536047688E-03

    ------------------------------------------------
       NWT REQUIRED            6 OUTER ITERATIONS 
       AND A TOTAL OF         11 INNER ITERATIONS.
    ------------------------------------------------

 NO OUTPUT CONTROL FOR STRESS PERIOD    8   TIME STEP   24
 
 SOLVING FOR HEAD 
                                                   Max.-Head-Change                         Max.-Flux-Residual
  Residual-Control   Outer-Iter.   Inner-Iter.     Column Row Layer    Maximum-Head-Change  Column Row Layer    Maximum-Flux-Residual          L2-NORM 
          0                 1           2             5    8     1       0.4817572144E-01       5    8    1         0.2635851339E+01      0.6373054696E+01
          0                 2           2             4    7     1      -0.2163001670E+00       5    8    1        -0.1174965216E+02      0.2872512841E+02
          0                 3           2             4    7     1       0.1472900490E-01       5    8    1         0.8223975676E+00      0.2013148266E+01
          0                 4           2             4    7     1      -0.5860820033E-03       5    8    1        -0.3362975978E-01      0.8251718772E-01
          0                 5           1             4    7     1       0.7226643519E-05       5    6    1         0.4257726634E-03      0.1082372469E-02

    ------------------------------------------------
       NWT REQUIRED            5 OUTER ITERATIONS 
       AND A TOTAL OF          9 INNER ITERATIONS.
    ------------------------------------------------

 NO OUTPUT CONTROL FOR STRESS PERIOD    8   TIME STEP   25
 
 SOLVING FOR HEAD 
                                                   Max.-Head-Change                         Max.-Flux-Residual
  Residual-Control   Outer-Iter.   Inner-Iter.     Column Row Layer    Maximum-Head-Change  Column Row Layer    Maximum-Flux-Residual          L2-NORM 
          0                 1           2             5    8     1       0.5202074133E-01       5    8    1         0.2846956912E+01      0.6822615381E+01
          0                 2           2             5    7     1      -0.9691111993E-01       5    8    1        -0.5336128080E+01      0.1299658130E+02
          0                 3           2             4    7     1       0.6870876116E-01       5    8    1         0.3801762159E+01      0.9328016494E+01
          0                 4           2             4    7     1      -0.2734012711E-02       5    8    1        -0.1554492852E+00      0.4023150955E+00
          0                 5           2             7   13     1       0.1468610171E-03       7   13    1         0.8412919445E-02      0.9919854406E-02
          0                 6           1             7   13     1      -0.5843476255E-05       7   13    1        -0.3439742266E-03      0.3524304463E-03

    ------------------------------------------------
       NWT REQUIRED            6 OUTER ITERATIONS 
       AND A TOTAL OF         11 INNER ITERATIONS.
    ------------------------------------------------

 NO OUTPUT CONTROL FOR STRESS PERIOD    8   TIME STEP   26
 
 SOLVING FOR HEAD 
                                                   Max.-Head-Change                         Max.-Flux-Residual
  Residual-Control   Outer-Iter.   Inner-Iter.     Column Row Layer    Maximum-Head-Change  Column Row Layer    Maximum-Flux-Residual          L2-NORM 
          0                 1           2             5    8     1       0.5032074392E-01       5    8    1         0.2751857561E+01      0.6669611662E+01
          0                 2           2             4    7     1      -0.2165049901E+00       5    8    1        -0.1176125255E+02      0.2875356447E+02
          0                 3           2             4    7     1       0.1474295255E-01       5    8    1         0.8232127905E+00      0.2015111309E+01
          0                 4           2             4    7     1      -0.5866369927E-03       5    8    1        -0.3366340922E-01      0.8259526258E-01
          0                 5           1             4    7     1       0.7233486506E-05       5    6    1         0.4262167186E-03      0.1082955573E-02

    ------------------------------------------------
       NWT REQUIRED            5 OUTER ITERATIONS 
       AND A TOTAL OF          9 INNER ITERATIONS.
    ------------------------------------------------

 NO OUTPUT CONTROL FOR STRESS PERIOD    8   TIME STEP   27
 
 SOLVING FOR HEAD 
                                                   Max.-Head-Change                         Max.-Flux-Residual
  Residual-Control   Outer-Iter.   Inner-Iter.     Column Row Layer    Maximum-Head-Change  Column Row Layer    Maximum-Flux-Residual          L2-NORM 
          0                 1           2             5    8     1       0.5408344045E-01       5    8    1         0.2958423644E+01      0.7109407119E+01
          0                 2           2             5    7     1      -0.9712256867E-01       5    8    1        -0.5347274509E+01      0.1302441616E+02
          0                 3           2             4    7     1       0.6872285506E-01       5    8    1         0.3802542424E+01      0.9329973892E+01
          0                 4           2             4    7     1      -0.2734573525E-02       5    8    1        -0.1554813980E+00      0.4022515358E+00
          0                 5           2             7   13     1       0.1462765134E-03       7   13    1         0.8379450792E-02      0.9892452994E-02
          0                 6           1             7   13     1      -0.5817192595E-05       7   13    1        -0.3424295810E-03      0.3510352542E-03

    ------------------------------------------------
       NWT REQUIRED            6 OUTER ITERATIONS 
       AND A TOTAL OF         11 INNER ITERATIONS.
    ------------------------------------------------

 NO OUTPUT CONTROL FOR STRESS PERIOD    8   TIME STEP   28
 
 SOLVING FOR HEAD 
                                                   Max.-Head-Change                         Max.-Flux-Residual
  Residual-Control   Outer-Iter.   Inner-Iter.     Column Row Layer    Maximum-Head-Change  Column Row Layer    Maximum-Flux-Residual          L2-NORM 
          0                 1           2             5    8     1       0.5230568906E-01       5    8    1         0.2859040552E+01      0.6947703981E+01
          0                 2           2             4    7     1      -0.2167070863E+00       5    8    1        -0.1177197062E+02      0.2878052090E+02
          0                 3           2             4    7     1       0.1475671435E-01       5    8    1         0.8239658496E+00      0.2016971821E+01
          0                 4           2             4    7     1      -0.5871845889E-03       5    8    1        -0.3369447715E-01      0.8266931805E-01
          0                 5           1             4    7     1       0.7240238872E-05       5    6    1         0.4266274670E-03      0.1083465906E-02

    ------------------------------------------------
       NWT REQUIRED            5 OUTER ITERATIONS 
       AND A TOTAL OF          9 INNER ITERATIONS.
    ------------------------------------------------

 NO OUTPUT CONTROL FOR STRESS PERIOD    8   TIME STEP   29
 
 SOLVING FOR HEAD 
                                                   Max.-Head-Change                         Max.-Flux-Residual
  Residual-Control   Outer-Iter.   Inner-Iter.     Column Row Layer    Maximum-Head-Change  Column Row Layer    Maximum-Flux-Residual          L2-NORM 
          0                 1           2             5    8     1       0.5599486440E-01       5    8    1         0.3061557986E+01      0.7378515173E+01
          0                 2           2             5    7     1      -0.9732460055E-01       5    8    1        -0.5357587710E+01      0.1305080892E+02
          0                 3           2             4    7     1       0.6873674548E-01       5    8    1         0.3803264363E+01      0.9331829331E+01
          0                 4           2             4    7     1      -0.2735126245E-02       5    8    1        -0.1555111003E+00      0.4021903028E+00
          0                 5           2             7   13     1       0.1457236684E-03       7   13    1         0.8347792477E-02      0.9866147710E-02
          0                 6           1             7   13     1      -0.5795947014E-05       7   13    1        -0.3411786402E-03      0.3497995922E-03

    ------------------------------------------------
       NWT REQUIRED            6 OUTER ITERATIONS 
       AND A TOTAL OF         11 INNER ITERATIONS.
    ------------------------------------------------

 NO OUTPUT CONTROL FOR STRESS PERIOD    8   TIME STEP   30



 STREAM LISTING     PERIOD      8   STEP       30

 LAYER ROW COL. STREAM  RCH.  FLOW INTO     FLOW TO   FLOW OUT OF   OVRLND.     DIRECT     STREAM       STREAM     STREAM     STREAM   STREAMBED  STREAMBED
                SEG.NO.  NO.  STRM. RCH.    AQUIFER    STRM. RCH.    RUNOFF     PRECIP       ET          HEAD       DEPTH      WIDTH   CONDCTNC.   GRADIENT

   1    1    1     1     1    5.6250E+01  3.5874E-01   5.5891E+01  0.000E+00  0.000E+00  0.000E+00  1.09453E+03  1.479E+00  1.780E+01  8.010E-02  1.493E+00
   1    2    2     1     2    5.5891E+01  5.5550E-01   5.5335E+01  0.000E+00  0.000E+00  0.000E+00  1.08953E+03  1.473E+00  1.774E+01  1.242E-01  1.491E+00
   1    3    3     1     3    5.5335E+01  4.7368E-01   5.4862E+01  0.000E+00  0.000E+00  0.000E+00  1.08389E+03  1.467E+00  1.767E+01  1.060E-01  1.489E+00
   1    3    4     1     4    5.4862E+01  4.3613E-01   5.4426E+01  0.000E+00  0.000E+00  0.000E+00  1.07887E+03  1.461E+00  1.762E+01  9.777E-02  1.487E+00
   1    4    5     2     1    5.2426E+01  3.8056E-01   5.2045E+01  0.000E+00  0.000E+00  0.000E+00  1.07381E+03  1.879E+00  1.200E+01  7.800E-02  1.626E+00
   1    5    6     2     2    5.2045E+01  2.9230E-01   5.1753E+01  0.000E+00  0.000E+00  0.000E+00  1.06838E+03  1.872E+00  1.200E+01  6.000E-02  1.624E+00
   1    6    6     2     3    5.1753E+01  2.9192E-01   5.1461E+01  0.000E+00  0.000E+00  0.000E+00  1.06366E+03  1.865E+00  1.200E+01  6.000E-02  1.622E+00
   1    7    6     2     4    5.1461E+01  2.9154E-01   5.1169E+01  0.000E+00  0.000E+00  0.000E+00  1.05893E+03  1.859E+00  1.200E+01  6.000E-02  1.620E+00
   1    8    6     2     5    5.1169E+01  2.9116E-01   5.0878E+01  0.000E+00  0.000E+00  0.000E+00  1.05421E+03  1.853E+00  1.200E+01  6.000E-02  1.618E+00
   1    3    5     3     1    2.0000E+00  2.8252E-01   1.7175E+00  0.000E+00  0.000E+00  0.000E+00  1.07555E+03  1.909E+00  9.636E+00  7.227E-02  1.955E+00
   1    3    6     3     2    1.7175E+00  2.4905E-01   1.4684E+00  0.000E+00  0.000E+00  0.000E+00  1.07264E+03  1.727E+00  8.909E+00  6.682E-02  1.864E+00
   1    3    7     3     3    1.4684E+00  1.9718E-01   1.2712E+00  0.000E+00  0.000E+00  0.000E+00  1.06987E+03  1.555E+00  8.218E+00  5.547E-02  1.777E+00
   1    4    8     3     4    1.2712E+00  2.2567E-01   1.0456E+00  0.000E+00  0.000E+00  0.000E+00  1.06682E+03  1.364E+00  7.455E+00  6.709E-02  1.682E+00
   1    5    8     3     5    1.0456E+00  1.5790E-01   8.8768E-01  0.000E+00  0.000E+00  0.000E+00  1.06362E+03  1.164E+00  6.655E+00  4.991E-02  1.582E+00
   1    6    8     3     6    8.8768E-01  5.5980E-02   8.3170E-01  0.000E+00  0.000E+00  0.000E+00  1.06158E+03  1.036E+00  6.145E+00  1.844E-02  1.518E+00
   1    5   10     4     1    1.0000E+01  9.0919E-02   9.9091E+00  0.000E+00  0.000E+00  0.000E+00  1.07836E+03  6.368E-01  1.000E+01  2.500E-02  1.212E+00
   1    5    9     4     2    9.9091E+00  1.8158E-01   9.7275E+00  0.000E+00  0.000E+00  0.000E+00  1.07154E+03  6.315E-01  1.000E+01  5.000E-02  1.211E+00
   1    6    8     4     3    9.7275E+00  1.2689E-01   9.6006E+00  0.000E+00  0.000E+00  0.000E+00  1.06381E+03  6.256E-01  1.000E+01  3.500E-02  1.209E+00
   1    6    8     5     1    1.0432E+01  2.2686E-01   1.0205E+01  0.000E+00  0.000E+00  0.000E+00  1.05868E+03  6.790E-01  1.542E+01  6.166E-02  1.226E+00
   1    7    7     5     2    1.0205E+01  2.7894E-01   9.9265E+00  0.000E+00  0.000E+00  0.000E+00  1.05417E+03  6.732E-01  1.519E+01  7.594E-02  1.224E+00
   1    8    7     5     3    9.9265E+00  1.9221E-01   9.7343E+00  0.000E+00  0.000E+00  0.000E+00  1.04992E+03  6.676E-01  1.497E+01  5.241E-02  1.223E+00
   1    8    6     5     4    9.7343E+00  1.3577E-01   9.5985E+00  0.000E+00  0.000E+00  0.000E+00  1.04691E+03  6.637E-01  1.482E+01  3.706E-02  1.221E+00
   1    9    6     6     1    9.5985E+00  2.2097E-01   9.3776E+00  0.000E+00  0.000E+00  0.000E+00  1.04341E+03  6.828E-01  1.200E+01  6.000E-02  1.228E+00
   1   10    7     6     2    9.3776E+00  2.2039E-01   9.1572E+00  0.000E+00  0.000E+00  0.000E+00  1.03885E+03  6.732E-01  1.200E+01  6.000E-02  1.224E+00
   1   11    7     6     3    9.1572E+00  2.1981E-01   8.9374E+00  0.000E+00  0.000E+00  0.000E+00  1.03430E+03  6.636E-01  1.200E+01  6.000E-02  1.221E+00
   1   12    7     6     4    8.9374E+00  2.1923E-01   8.7181E+00  0.000E+00  0.000E+00  0.000E+00  1.02974E+03  6.539E-01  1.200E+01  6.000E-02  1.218E+00
   1   13    7     6     5    8.7181E+00 -1.3223E-01   8.8504E+00  0.000E+00  0.000E+00  0.000E+00  1.02656E+03  6.519E-01  1.200E+01  2.400E-01 -1.837E-01
   1   14    9     7     1    1.5000E+02  1.3358E+00   1.4866E+02  0.000E+00  0.000E+00  0.000E+00  1.03987E+03  2.288E+00  5.529E+01  5.593E-01  7.961E-01
   1   13    8     7     2    1.4866E+02  1.8202E+00   1.4684E+02  0.000E+00  0.000E+00  0.000E+00  1.03478E+03  2.279E+00  5.526E+01  6.148E-01  9.869E-01
   1   13    7     7     3    1.4684E+02  1.4397E+00   1.4540E+02  0.000E+00  0.000E+00  0.000E+00  1.02969E+03  2.271E+00  5.522E+01  5.585E-01  8.593E-01
   1   13    6     8     1    1.5425E+02  7.9135E-01   1.5346E+02  0.000E+00  0.000E+00  0.000E+00  1.02472E+03  2.844E+00  4.124E+01  4.202E-01  6.278E-01
   1   13    5     8     2    1.5346E+02  6.7820E-02   1.5340E+02  0.000E+00  0.000E+00  0.000E+00  1.01847E+03  2.841E+00  4.119E+01  4.198E-01  5.386E-02
   1   13    4     8     3    1.5340E+02 -2.7918E+00   1.5619E+02  0.000E+00  0.000E+00  0.000E+00  1.01223E+03  2.850E+00  4.133E+01  4.212E+00 -2.210E-01
   1   13    3     8     4    1.5619E+02 -3.8424E+00   1.6003E+02  0.000E+00  0.000E+00  0.000E+00  1.00600E+03  2.873E+00  4.166E+01  4.245E+00 -3.017E-01
   1   13    2     8     5    1.6003E+02 -2.6971E+00   1.6273E+02  0.000E+00  0.000E+00  0.000E+00  9.99770E+02  2.895E+00  4.198E+01  4.278E+00 -2.102E-01
   1   13    1     8     6    1.6273E+02 -2.0938E+00   1.6482E+02  0.000E+00  0.000E+00  0.000E+00  9.94786E+02  2.911E+00  4.221E+01  2.581E+00 -2.704E-01
   1    8    6     9     1    5.0878E+01  0.0000E+00   5.0878E+01  0.000E+00  0.000E+00  0.000E+00  1.08476E+03  6.014E+00  4.000E+00  0.000E+00  3.005E+00
   1    8    5     9     2    5.0878E+01  0.0000E+00   5.0878E+01  0.000E+00  0.000E+00  0.000E+00  1.08426E+03  6.014E+00  4.000E+00  0.000E+00  3.005E+00





UNSATURATED ZONE PACKAGE VOLUMETRIC BUDGET FOR  TIME STEP    30 STRESS PERIOD    8
  ------------------------------------------------------------------------------



     CUMULATIVE VOLUMES      L**3       RATES FOR THIS TIME STEP      L**3/T
     ------------------                 ------------------------

           IN:                                      IN:
           ---                                      ---
        INFILTRATION =   341458147.3680          INFILTRATION =          61.4657

          OUT:                                     OUT:
          ----                                     ----
              UZF ET =   261767512.7522                UZF ET =          60.8175
        UZF RECHARGE =       73224.0000          UZF RECHARGE =       0.0000E+00

            IN - OUT =    79617410.6158              IN - OUT =           0.6482

          STORAGE:                                 STORAGE:
          --------                                 --------
      STORAGE CHANGE =    79617390.9080        STORAGE CHANGE =           0.6482

 PERCENT DISCREPANCY IS DIFFERENCE BETWEEN IN-OUT MINUS CHANGE IN STORAGE
 DIVIDED BY THE AVERAGE OF IN AND OUT TIMES 100

 PERCENT DISCREPANCY =           0.00     PERCENT DISCREPANCY =           0.00






1
  VOLUMETRIC BUDGET FOR AGRICULTURAL FIELDS AT  END OF TIME STEP   30, STRESS PERIOD   8
  ------------------------------------------------------------------------------

     CUMULATIVE VOLUMES      L**3       RATES FOR THIS TIME STEP      L**3/T
     ------------------                 ------------------------

           IN:                                      IN:
           ---                                      ---
               AG WELLS  =   103441744.0000                 AG WELLS  =           9.7392
      DIVERSION SEGMENTS =   222336192.0000        DIVERSION SEGMENTS =          50.8780
           GW IRRIGATION =           0.0000             GW IRRIGATION =           0.0000
           SW IRRIGATION =           0.0000             SW IRRIGATION =           0.0000
        SYSTEM LOSSES GW =           0.0000          SYSTEM LOSSES GW =           0.0000
        SYSTEM LOSSES SW =           0.0000          SYSTEM LOSSES SW =           0.0000

                TOTAL IN =   325777920.0000                  TOTAL IN =          60.6172

          OUT:                                     OUT:
          ----                                     ----
               AG WELLS  =           0.0000                 AG WELLS  =           0.0000
      DIVERSION SEGMENTS =           0.0000        DIVERSION SEGMENTS =           0.0000
           GW IRRIGATION =   103441744.0000             GW IRRIGATION =           9.7392
           SW IRRIGATION =   222340720.0000             SW IRRIGATION =          50.8790
        SYSTEM LOSSES GW =           0.0000          SYSTEM LOSSES GW =           0.0000
        SYSTEM LOSSES SW =           0.0000          SYSTEM LOSSES SW =           0.0000

               TOTAL OUT =   325782464.0000                 TOTAL OUT =          60.6182

                IN - OUT =       -4544.0000                  IN - OUT =      -1.0185E-03

     PERCENT DISCREPANCY =          -0.00         PERCENT DISCREPANCY =          -0.00



1
  VOLUMETRIC BUDGET FOR ENTIRE MODEL AT END OF TIME STEP   30, STRESS PERIOD   8
  ------------------------------------------------------------------------------

     CUMULATIVE VOLUMES      L**3       RATES FOR THIS TIME STEP      L**3/T
     ------------------                 ------------------------

           IN:                                      IN:
           ---                                      ---
             STORAGE     =   122412664.0000               STORAGE     =          14.8747
       CONSTANT HEAD     =           0.0000         CONSTANT HEAD     =           0.0000
     HEAD DEP BOUNDS     =     5284905.5000       HEAD DEP BOUNDS     =           0.2858
      STREAM LEAKAGE     =   226142544.0000        STREAM LEAKAGE     =          12.1083
        UZF RECHARGE     =       73223.9531          UZF RECHARGE     =           0.0000
               GW ET     =           0.0000                 GW ET     =           0.0000
     SURFACE LEAKAGE     =           0.0000       SURFACE LEAKAGE     =           0.0000
           AG WELLS      =           0.0000             AG WELLS      =           0.0000

                TOTAL IN =   353913344.0000                  TOTAL IN =          27.2688

          OUT:                                     OUT:
          ----                                     ----
             STORAGE     =    44365212.0000               STORAGE     =           5.6835
       CONSTANT HEAD     =           0.0000         CONSTANT HEAD     =           0.0000
     HEAD DEP BOUNDS     =     5396893.0000       HEAD DEP BOUNDS     =           0.2887
      STREAM LEAKAGE     =   199161728.0000        STREAM LEAKAGE     =          11.5573
        UZF RECHARGE     =           0.0000          UZF RECHARGE     =           0.0000
               GW ET     =     1552216.2500                 GW ET     =           0.0000
     SURFACE LEAKAGE     =           0.0000       SURFACE LEAKAGE     =           0.0000
           AG WELLS      =   103441744.0000             AG WELLS      =           9.7392

               TOTAL OUT =   353917824.0000                 TOTAL OUT =          27.2687

                IN - OUT =       -4480.0000                  IN - OUT =       1.1444E-05

     PERCENT DISCREPANCY =          -0.00         PERCENT DISCREPANCY =           0.00






         TIME SUMMARY AT END OF TIME STEP   30 IN STRESS PERIOD    8
                    SECONDS     MINUTES      HOURS       DAYS        YEARS
                    -----------------------------------------------------------
   TIME STEP LENGTH  87667.      1461.1      24.352      1.0147     2.77799E-03
 STRESS PERIOD TIME 2.63000E+06  43833.      730.56      30.440     8.33397E-02
         TOTAL TIME 1.84964E+07 3.08274E+05  5137.9      214.08     0.58612    
1
1
                            STRESS PERIOD NO.    9, LENGTH =   2630000.    
                            -----------------------------------------------

                              NUMBER OF TIME STEPS =    30

                               MULTIPLIER FOR DELT =     1.000

                            INITIAL TIME STEP SIZE =   87666.66    

 REUSING NON-PARAMETER GHB CELLS FROM LAST STRESS PERIOD

      2 GHB CELLS

 REUSING STREAM SEGMENT DATA FROM LAST STRESS PERIOD



            AREAL INFILTRATION RATE
 READING ON UNIT   19 WITH FORMAT: (FREE)              

            1           2           3           4           5           6           7           8           9          10
 ........................................................................................................................
   1   1.0000E-10  2.0000E-10   0.000       0.000       0.000       0.000       0.000       0.000       0.000       0.000    
   2   2.0000E-10  1.0000E-10  2.0000E-10   0.000       0.000      8.0000E-10  8.0000E-10  5.0000E-10   0.000       0.000    
   3    0.000      5.0000E-10  1.0000E-10  1.0000E-10  8.0000E-10  8.0000E-10  5.0000E-10  5.0000E-10   0.000       0.000    
   4   8.0000E-10  5.0000E-10  1.0000E-10  1.0000E-10  1.0000E-10  1.0000E-10  1.0000E-10  1.0000E-10  2.0000E-10   0.000    
   5   8.0000E-10  5.0000E-10  1.0000E-10  1.0000E-10  1.0000E-10  1.0000E-10  1.0000E-10  1.0000E-10  1.0000E-10  1.0000E-10
   6   8.0000E-10  5.0000E-10  5.0000E-10  2.0000E-10  2.0000E-10  1.0000E-10  1.0000E-10  1.0000E-10  1.0000E-10  5.0000E-10
   7   8.0000E-10  5.0000E-10  5.0000E-10  2.0000E-10  2.0000E-10  1.0000E-10  1.0000E-10  2.0000E-10  2.0000E-10   0.000    
   8    0.000      5.0000E-10  5.0000E-10  2.0000E-10  2.0000E-10  1.0000E-10  1.0000E-10  2.0000E-10  5.0000E-10   0.000    
   9    0.000      5.0000E-10  5.0000E-10  2.0000E-10  2.0000E-10  1.0000E-10  1.0000E-10  2.0000E-10  5.0000E-10   0.000    
  10    0.000      5.0000E-10  5.0000E-10  2.0000E-10  2.0000E-10  1.0000E-10  1.0000E-10  2.0000E-10  5.0000E-10  8.0000E-10
  11    0.000      1.0000E-10  1.0000E-10  1.0000E-10  1.0000E-10  1.0000E-10  1.0000E-10  2.0000E-10  5.0000E-10   0.000    
  12   1.0000E-10  1.0000E-10  1.0000E-10  1.0000E-10  1.0000E-10  1.0000E-10  1.0000E-10  1.0000E-10  2.0000E-10   0.000    
  13   1.0000E-10  1.0000E-10  2.0000E-10  2.0000E-10  2.0000E-10  2.0000E-10  2.0000E-10  1.0000E-10  1.0000E-10   0.000    
  14    0.000      2.0000E-10  5.0000E-10  5.0000E-10  5.0000E-10  5.0000E-10  5.0000E-10  2.0000E-10  1.0000E-10   0.000    
  15    0.000       0.000      8.0000E-10  8.0000E-10  8.0000E-10  8.0000E-10   0.000       0.000       0.000       0.000    

                  ET RATE =  3.250000E-07

 USING ET EXTINCTION DEPTH FROM PREVIOUS STRESS PERIOD. CURRENT PERIOD IS:       9

 USING EXTINCTION WATER CONTENT FROM PREVIOUS STRESS PERIOD. CURRENT PERIOD IS:       9

 USING AIR ENTRY PRESSURE FROM PREVIOUS STRESS PERIOD. CURRENT PERIOD IS:       9

 USING ROOT PRESSURE HEAD FROM PREVIOUS STRESS PERIOD. CURRENT PERIOD IS:       9

 USING ROOT ACTIVITY FROM PREVIOUS STRESS PERIOD. CURRENT PERIOD IS:       9

 PROCESSING AG STRESS PERIOD DATA

 READING AG STRESS PERIOD DATA

 READING IRRIGATION SEGMENT

 READING IRRIGATION WELL

 READING SUPPLEMENTAL WELL

 END PROCESSING AG STRESS PERIOD DATA OPTIONS
 
 SOLVING FOR HEAD 
                                                   Max.-Head-Change                         Max.-Flux-Residual
  Residual-Control   Outer-Iter.   Inner-Iter.     Column Row Layer    Maximum-Head-Change  Column Row Layer    Maximum-Flux-Residual          L2-NORM 
          0                 1           2             5    8     1       0.5414434800E-01       5    8    1         0.2958371942E+01      0.7121975733E+01
          0                 2           2             4    7     1      -0.1775495777E+00       5    8    1        -0.9669455749E+01      0.2361408481E+02
          0                 3           2             4    7     1       0.1209031514E-01       5    8    1         0.6768269980E+00      0.1656279346E+01
          0                 4           2             4    7     1      -0.4810856780E-03       5    8    1        -0.2767967839E-01      0.6798865752E-01
          0                 5           1             4    7     1       0.5931993633E-05       5    8    1         0.3506086794E-03      0.9079519763E-03

    ------------------------------------------------
       NWT REQUIRED            5 OUTER ITERATIONS 
       AND A TOTAL OF          9 INNER ITERATIONS.
    ------------------------------------------------

 NO OUTPUT CONTROL FOR STRESS PERIOD    9   TIME STEP    1
 
 SOLVING FOR HEAD 
                                                   Max.-Head-Change                         Max.-Flux-Residual
  Residual-Control   Outer-Iter.   Inner-Iter.     Column Row Layer    Maximum-Head-Change  Column Row Layer    Maximum-Flux-Residual          L2-NORM 
          0                 1           2             5    8     1       0.5662028894E-01       5    8    1         0.3093940092E+01      0.7419499771E+01
          0                 2           2             5    6     1      -0.3712673059E-01       5    8    1        -0.2049770605E+01      0.4923660481E+01
          0                 3           2             4    7     1       0.3249560258E-01       5    8    1         0.1803204509E+01      0.4422808851E+01
          0                 4           2             4    7     1      -0.1288423222E-02       5    8    1        -0.7347313036E-01      0.1796836014E+00
          0                 5           2             4   13     1      -0.1766697081E-03       4   13    1        -0.1100205366E-01      0.1922840355E-01
          0                 6           2             4   13     1      -0.1730060469E-03       4   13    1        -0.1077278927E-01      0.1888720075E-01
          0                 7           2             4    7     1       0.1381891750E-02       5    6    1         0.8054779736E-01      0.1981921717E+00
          0                 8           1             4    7     1       0.2029615436E-04       5    6    1         0.1183935497E-02      0.2906202434E-02

    ------------------------------------------------
       NWT REQUIRED            8 OUTER ITERATIONS 
       AND A TOTAL OF         15 INNER ITERATIONS.
    ------------------------------------------------

 NO OUTPUT CONTROL FOR STRESS PERIOD    9   TIME STEP    2
 
 SOLVING FOR HEAD 
                                                   Max.-Head-Change                         Max.-Flux-Residual
  Residual-Control   Outer-Iter.   Inner-Iter.     Column Row Layer    Maximum-Head-Change  Column Row Layer    Maximum-Flux-Residual          L2-NORM 
          0                 1           2             5    8     1       0.5389562675E-01       5    8    1         0.2942354171E+01      0.7136709336E+01
          0                 2           2             4    7     1      -0.1168734412E+00       5    8    1        -0.6402684381E+01      0.1563889946E+02
          0                 3           2             4    7     1       0.1998818236E-01       5    8    1         0.1111919609E+01      0.2717798764E+01
          0                 4           2             4    7     1      -0.7953506117E-03       5    8    1        -0.4546981609E-01      0.1113801094E+00
          0                 5           1             4    7     1       0.9807014365E-05       5    6    1         0.5757362751E-03      0.1453134243E-02

    ------------------------------------------------
       NWT REQUIRED            5 OUTER ITERATIONS 
       AND A TOTAL OF          9 INNER ITERATIONS.
    ------------------------------------------------

 NO OUTPUT CONTROL FOR STRESS PERIOD    9   TIME STEP    3
 
 SOLVING FOR HEAD 
                                                   Max.-Head-Change                         Max.-Flux-Residual
  Residual-Control   Outer-Iter.   Inner-Iter.     Column Row Layer    Maximum-Head-Change  Column Row Layer    Maximum-Flux-Residual          L2-NORM 
          0                 1           2             5    8     1       0.5429750582E-01       5    8    1         0.2963538999E+01      0.7208210074E+01
          0                 2           2             5    6     1      -0.4640775259E-01       5    8    1        -0.2558397549E+01      0.6190957211E+01
          0                 3           2             4    7     1       0.4408182118E-01       5    8    1         0.2441134540E+01      0.5990709280E+01
          0                 4           2             4    7     1      -0.1754067826E-02       5    8    1        -0.9981714849E-01      0.2469142103E+00
          0                 5           1             4    7     1       0.2162839914E-04       5    6    1         0.1263411130E-02      0.3359556368E-02

    ------------------------------------------------
       NWT REQUIRED            5 OUTER ITERATIONS 
       AND A TOTAL OF          9 INNER ITERATIONS.
    ------------------------------------------------

 NO OUTPUT CONTROL FOR STRESS PERIOD    9   TIME STEP    4
 
 SOLVING FOR HEAD 
                                                   Max.-Head-Change                         Max.-Flux-Residual
  Residual-Control   Outer-Iter.   Inner-Iter.     Column Row Layer    Maximum-Head-Change  Column Row Layer    Maximum-Flux-Residual          L2-NORM 
          0                 1           2             5    6     1       0.5176503859E-01       5    8    1         0.2821648504E+01      0.6946603925E+01
          0                 2           2             4    7     1      -0.1227961280E+00       5    8    1        -0.6702856570E+01      0.1639625347E+02
          0                 3           2             4    7     1       0.1473239217E-01       5    8    1         0.8206873725E+00      0.2006036315E+01
          0                 4           2             4    7     1      -0.5862168038E-03       5    8    1        -0.3356176068E-01      0.8227102429E-01
          0                 5           1             4    7     1       0.7228305483E-05       5    6    1         0.4250712614E-03      0.1083532005E-02

    ------------------------------------------------
       NWT REQUIRED            5 OUTER ITERATIONS 
       AND A TOTAL OF          9 INNER ITERATIONS.
    ------------------------------------------------

 NO OUTPUT CONTROL FOR STRESS PERIOD    9   TIME STEP    5
 
 SOLVING FOR HEAD 
                                                   Max.-Head-Change                         Max.-Flux-Residual
  Residual-Control   Outer-Iter.   Inner-Iter.     Column Row Layer    Maximum-Head-Change  Column Row Layer    Maximum-Flux-Residual          L2-NORM 
          0                 1           2             5    8     1       0.5264340695E-01       5    8    1         0.2870429484E+01      0.7065298722E+01
          0                 2           2             5    6     1      -0.4460388199E-01       5    8    1        -0.2458019957E+01      0.5959432102E+01
          0                 3           2             4    7     1       0.4232299463E-01       5    8    1         0.2343041313E+01      0.5750755368E+01
          0                 4           2             4    7     1      -0.1684081637E-02       5    6    1        -0.9580651895E-01      0.2366803867E+00
          0                 5           1             4    7     1       0.2076544032E-04       5    6    1         0.1212663881E-02      0.3216074663E-02

    ------------------------------------------------
       NWT REQUIRED            5 OUTER ITERATIONS 
       AND A TOTAL OF          9 INNER ITERATIONS.
    ------------------------------------------------

 NO OUTPUT CONTROL FOR STRESS PERIOD    9   TIME STEP    6
 
 SOLVING FOR HEAD 
                                                   Max.-Head-Change                         Max.-Flux-Residual
  Residual-Control   Outer-Iter.   Inner-Iter.     Column Row Layer    Maximum-Head-Change  Column Row Layer    Maximum-Flux-Residual          L2-NORM 
          0                 1           2             5    6     1       0.5035590823E-01       5    6    1         0.2735763723E+01      0.6815274646E+01
          0                 2           2             4    7     1      -0.1211846800E+00       5    6    1        -0.6602491903E+01      0.1616370527E+02
          0                 3           2             4    7     1       0.1628605854E-01       5    6    1         0.9054401860E+00      0.2214125288E+01
          0                 4           2             4    7     1      -0.6480389232E-03       5    6    1        -0.3702764975E-01      0.9076144654E-01
          0                 5           1             4    7     1       0.7990598926E-05       5    6    1         0.4689164073E-03      0.1188113537E-02

    ------------------------------------------------
       NWT REQUIRED            5 OUTER ITERATIONS 
       AND A TOTAL OF          9 INNER ITERATIONS.
    ------------------------------------------------

 NO OUTPUT CONTROL FOR STRESS PERIOD    9   TIME STEP    7
 
 SOLVING FOR HEAD 
                                                   Max.-Head-Change                         Max.-Flux-Residual
  Residual-Control   Outer-Iter.   Inner-Iter.     Column Row Layer    Maximum-Head-Change  Column Row Layer    Maximum-Flux-Residual          L2-NORM 
          0                 1           2             5    6     1       0.5123692223E-01       5    8    1         0.2785576398E+01      0.6931746888E+01
          0                 2           2             5    6     1      -0.4494656748E-01       5    8    1        -0.2475871971E+01      0.6016399204E+01
          0                 3           2             4    7     1       0.4284002109E-01       5    8    1         0.2370628097E+01      0.5819527484E+01
          0                 4           2             4    7     1      -0.1704654890E-02       5    6    1        -0.9693602260E-01      0.2395930803E+00
          0                 5           1             4    7     1       0.2101911718E-04       5    6    1         0.1226933928E-02      0.3256811107E-02

    ------------------------------------------------
       NWT REQUIRED            5 OUTER ITERATIONS 
       AND A TOTAL OF          9 INNER ITERATIONS.
    ------------------------------------------------

 NO OUTPUT CONTROL FOR STRESS PERIOD    9   TIME STEP    8
 
 SOLVING FOR HEAD 
                                                   Max.-Head-Change                         Max.-Flux-Residual
  Residual-Control   Outer-Iter.   Inner-Iter.     Column Row Layer    Maximum-Head-Change  Column Row Layer    Maximum-Flux-Residual          L2-NORM 
          0                 1           2             5    6     1       0.4905311138E-01       5    6    1         0.2662894362E+01      0.6693101907E+01
          0                 2           2             4    7     1      -0.1217713258E+00       5    6    1        -0.6622116369E+01      0.1622320641E+02
          0                 3           2             4    7     1       0.1583827008E-01       5    6    1         0.8799021421E+00      0.2152487401E+01
          0                 4           2             4    7     1      -0.6302209327E-03       5    6    1        -0.3598315144E-01      0.8824560820E-01
          0                 5           1             4    7     1       0.7770895267E-05       5    6    1         0.4556802978E-03      0.1157087683E-02

    ------------------------------------------------
       NWT REQUIRED            5 OUTER ITERATIONS 
       AND A TOTAL OF          9 INNER ITERATIONS.
    ------------------------------------------------

 NO OUTPUT CONTROL FOR STRESS PERIOD    9   TIME STEP    9
 
 SOLVING FOR HEAD 
                                                   Max.-Head-Change                         Max.-Flux-Residual
  Residual-Control   Outer-Iter.   Inner-Iter.     Column Row Layer    Maximum-Head-Change  Column Row Layer    Maximum-Flux-Residual          L2-NORM 
          0                 1           2             5    6     1       0.5005363930E-01       5    6    1         0.2717347483E+01      0.6820211700E+01
          0                 2           2             5    6     1      -0.4469041027E-01       5    6    1        -0.2461290133E+01      0.5990953208E+01
          0                 3           2             4    7     1       0.4269511812E-01       5    6    1         0.2361848274E+01      0.5798723755E+01
          0                 4           2             4    7     1      -0.1698889024E-02       5    6    1        -0.9657733790E-01      0.2387081097E+00
          0                 5           1             4    7     1       0.2094802136E-04       5    6    1         0.1222377168E-02      0.3244124298E-02

    ------------------------------------------------
       NWT REQUIRED            5 OUTER ITERATIONS 
       AND A TOTAL OF          9 INNER ITERATIONS.
    ------------------------------------------------

 NO OUTPUT CONTROL FOR STRESS PERIOD    9   TIME STEP   10
 
 SOLVING FOR HEAD 
                                                   Max.-Head-Change                         Max.-Flux-Residual
  Residual-Control   Outer-Iter.   Inner-Iter.     Column Row Layer    Maximum-Head-Change  Column Row Layer    Maximum-Flux-Residual          L2-NORM 
          0                 1           2             5    6     1       0.4795426789E-01       5    6    1         0.2601409587E+01      0.6590935897E+01
          0                 2           2             4    7     1      -0.1216999096E+00       5    6    1        -0.6608071592E+01      0.1619824367E+02
          0                 3           2             4    7     1       0.1597654018E-01       5    6    1         0.8868134242E+00      0.2170062762E+01
          0                 4           2             4    7     1      -0.6357228645E-03       5    6    1        -0.3626542580E-01      0.8896235617E-01
          0                 5           1             4    7     1       0.7838736380E-05       5    6    1         0.4592305741E-03      0.1165804384E-02

    ------------------------------------------------
       NWT REQUIRED            5 OUTER ITERATIONS 
       AND A TOTAL OF          9 INNER ITERATIONS.
    ------------------------------------------------

 NO OUTPUT CONTROL FOR STRESS PERIOD    9   TIME STEP   11
 
 SOLVING FOR HEAD 
                                                   Max.-Head-Change                         Max.-Flux-Residual
  Residual-Control   Outer-Iter.   Inner-Iter.     Column Row Layer    Maximum-Head-Change  Column Row Layer    Maximum-Flux-Residual          L2-NORM 
          0                 1           2             5    6     1       0.4902506678E-01       5    6    1         0.2659799642E+01      0.6723225193E+01
          0                 2           2             5    7     1      -0.4465026393E-01       5    6    1        -0.2457809031E+01      0.5990958417E+01
          0                 3           2             4    7     1       0.4274411610E-01       5    6    1         0.2363878157E+01      0.5804352016E+01
          0                 4           2             4    7     1      -0.1700838749E-02       5    6    1        -0.9666009709E-01      0.2389462633E+00
          0                 5           1             4    7     1       0.2097206199E-04       5    6    1         0.1223408043E-02      0.3247856471E-02

    ------------------------------------------------
       NWT REQUIRED            5 OUTER ITERATIONS 
       AND A TOTAL OF          9 INNER ITERATIONS.
    ------------------------------------------------

 NO OUTPUT CONTROL FOR STRESS PERIOD    9   TIME STEP   12
 
 SOLVING FOR HEAD 
                                                   Max.-Head-Change                         Max.-Flux-Residual
  Residual-Control   Outer-Iter.   Inner-Iter.     Column Row Layer    Maximum-Head-Change  Column Row Layer    Maximum-Flux-Residual          L2-NORM 
          0                 1           2             5    6     1       0.4699876274E-01       5    6    1         0.2547946436E+01      0.6502174373E+01
          0                 2           2             4    7     1      -0.1218097317E+00       5    6    1        -0.6605042340E+01      0.1619910005E+02
          0                 3           2             4    7     1       0.1594204916E-01       5    6    1         0.8842815752E+00      0.2164465706E+01
          0                 4           2             4    7     1      -0.6343504369E-03       5    6    1        -0.3616157891E-01      0.8873359461E-01
          0                 5           1             4    7     1       0.7821813179E-05       5    6    1         0.4578945668E-03      0.1163189027E-02

    ------------------------------------------------
       NWT REQUIRED            5 OUTER ITERATIONS 
       AND A TOTAL OF          9 INNER ITERATIONS.
    ------------------------------------------------

 NO OUTPUT CONTROL FOR STRESS PERIOD    9   TIME STEP   13
 
 SOLVING FOR HEAD 
                                                   Max.-Head-Change                         Max.-Flux-Residual
  Residual-Control   Outer-Iter.   Inner-Iter.     Column Row Layer    Maximum-Head-Change  Column Row Layer    Maximum-Flux-Residual          L2-NORM 
          0                 1           2             5    6     1       0.4813951199E-01       5    6    1         0.2610242261E+01      0.6639839042E+01
          0                 2           2             5    7     1      -0.4462366747E-01       5    6    1        -0.2452186067E+01      0.5984543411E+01
          0                 3           2             4    7     1       0.4273550901E-01       5    6    1         0.2362817217E+01      0.5802296330E+01
          0                 4           2             4    7     1      -0.1700496285E-02       5    6    1        -0.9661650659E-01      0.2388573322E+00
          0                 5           1             4    7     1       0.2096783959E-04       5    6    1         0.1222842187E-02      0.3246357950E-02

    ------------------------------------------------
       NWT REQUIRED            5 OUTER ITERATIONS 
       AND A TOTAL OF          9 INNER ITERATIONS.
    ------------------------------------------------

 NO OUTPUT CONTROL FOR STRESS PERIOD    9   TIME STEP   14
 
 SOLVING FOR HEAD 
                                                   Max.-Head-Change                         Max.-Flux-Residual
  Residual-Control   Outer-Iter.   Inner-Iter.     Column Row Layer    Maximum-Head-Change  Column Row Layer    Maximum-Flux-Residual          L2-NORM 
          0                 1           2             5    6     1       0.4617664171E-01       5    6    1         0.2501931682E+01      0.6425919345E+01
          0                 2           2             4    7     1      -0.1218559179E+00       5    6    1        -0.6599760517E+01      0.1619328855E+02
          0                 3           2             4    7     1       0.1595753218E-01       5    6    1         0.8845889174E+00      0.2165727527E+01
          0                 4           2             4    7     1      -0.6349665323E-03       5    6    1        -0.3617386027E-01      0.8878469286E-01
          0                 5           1             4    7     1       0.7829410361E-05       5    6    1         0.4580305424E-03      0.1163811160E-02

    ------------------------------------------------
       NWT REQUIRED            5 OUTER ITERATIONS 
       AND A TOTAL OF          9 INNER ITERATIONS.
    ------------------------------------------------

 NO OUTPUT CONTROL FOR STRESS PERIOD    9   TIME STEP   15
 
 SOLVING FOR HEAD 
                                                   Max.-Head-Change                         Max.-Flux-Residual
  Residual-Control   Outer-Iter.   Inner-Iter.     Column Row Layer    Maximum-Head-Change  Column Row Layer    Maximum-Flux-Residual          L2-NORM 
          0                 1           2             5    6     1       0.4737540675E-01       5    6    1         0.2567467052E+01      0.6567778910E+01
          0                 2           2             5    7     1      -0.4461380430E-01       5    6    1        -0.2448104385E+01      0.5980922806E+01
          0                 3           2             4    7     1       0.4274313389E-01       5    6    1         0.2362727241E+01      0.5802553215E+01
          0                 4           2             4    7     1      -0.1700799710E-02       5    6    1        -0.9661264152E-01      0.2388662764E+00
          0                 5           1             4    7     1       0.2097158077E-04       5    6    1         0.1222780637E-02      0.3246826622E-02

    ------------------------------------------------
       NWT REQUIRED            5 OUTER ITERATIONS 
       AND A TOTAL OF          9 INNER ITERATIONS.
    ------------------------------------------------

 NO OUTPUT CONTROL FOR STRESS PERIOD    9   TIME STEP   16
 
 SOLVING FOR HEAD 
                                                   Max.-Head-Change                         Max.-Flux-Residual
  Residual-Control   Outer-Iter.   Inner-Iter.     Column Row Layer    Maximum-Head-Change  Column Row Layer    Maximum-Flux-Residual          L2-NORM 
          0                 1           2             5    6     1       0.4546732729E-01       5    6    1         0.2462213998E+01      0.6360075943E+01
          0                 2           2             4    7     1      -0.1219116194E+00       5    6    1        -0.6595988631E+01      0.1619023293E+02
          0                 3           2             4    7     1       0.1595772563E-01       5    6    1         0.8841229811E+00      0.2165029665E+01
          0                 4           2             4    7     1      -0.6349742370E-03       5    6    1        -0.3615455568E-01      0.8875579080E-01
          0                 5           1             4    7     1       0.7829505237E-05       5    6    1         0.4577690870E-03      0.1163483362E-02

    ------------------------------------------------
       NWT REQUIRED            5 OUTER ITERATIONS 
       AND A TOTAL OF          9 INNER ITERATIONS.
    ------------------------------------------------

 NO OUTPUT CONTROL FOR STRESS PERIOD    9   TIME STEP   17
 
 SOLVING FOR HEAD 
                                                   Max.-Head-Change                         Max.-Flux-Residual
  Residual-Control   Outer-Iter.   Inner-Iter.     Column Row Layer    Maximum-Head-Change  Column Row Layer    Maximum-Flux-Residual          L2-NORM 
          0                 1           2             5    6     1       0.4671740832E-01       5    6    1         0.2530611115E+01      0.6505559169E+01
          0                 2           2             5    7     1      -0.4460033773E-01       5    6    1        -0.2444361658E+01      0.5977279529E+01
          0                 3           2             4    7     1       0.4274541113E-01       5    6    1         0.2362408030E+01      0.5802180966E+01
          0                 4           2             4    7     1      -0.1700890343E-02       5    6    1        -0.9659942438E-01      0.2388525265E+00
          0                 5           1             4    7     1       0.2097269801E-04       5    7    1         0.1222702676E-02      0.3248994099E-02

    ------------------------------------------------
       NWT REQUIRED            5 OUTER ITERATIONS 
       AND A TOTAL OF          9 INNER ITERATIONS.
    ------------------------------------------------

 NO OUTPUT CONTROL FOR STRESS PERIOD    9   TIME STEP   18
 
 SOLVING FOR HEAD 
                                                   Max.-Head-Change                         Max.-Flux-Residual
  Residual-Control   Outer-Iter.   Inner-Iter.     Column Row Layer    Maximum-Head-Change  Column Row Layer    Maximum-Flux-Residual          L2-NORM 
          0                 1           2             5    6     1       0.4485696136E-01       5    6    1         0.2428014392E+01      0.6303299974E+01
          0                 2           2             4    7     1      -0.1219564845E+00       5    6    1        -0.6592510099E+01      0.1618707085E+02
          0                 3           2             4    7     1       0.1596184717E-01       5    6    1         0.8839353581E+00      0.2164952317E+01
          0                 4           2             4    7     1      -0.6351382439E-03       5    6    1        -0.3614665881E-01      0.8875223849E-01
          0                 5           1             4    7     1       0.7831527553E-05       5    6    1         0.4576538781E-03      0.1163426684E-02

    ------------------------------------------------
       NWT REQUIRED            5 OUTER ITERATIONS 
       AND A TOTAL OF          9 INNER ITERATIONS.
    ------------------------------------------------

 NO OUTPUT CONTROL FOR STRESS PERIOD    9   TIME STEP   19
 
 SOLVING FOR HEAD 
                                                   Max.-Head-Change                         Max.-Flux-Residual
  Residual-Control   Outer-Iter.   Inner-Iter.     Column Row Layer    Maximum-Head-Change  Column Row Layer    Maximum-Flux-Residual          L2-NORM 
          0                 1           2             5    6     1       0.4615144215E-01       5    6    1         0.2498886360E+01      0.6451810038E+01
          0                 2           2             5    7     1      -0.4458942718E-01       5    6    1        -0.2441205950E+01      0.5974340031E+01
          0                 3           2             4    7     1       0.4274873367E-01       5    6    1         0.2362203819E+01      0.5802038604E+01
          0                 4           2             4    7     1      -0.1701022568E-02       5    6    1        -0.9659092760E-01      0.2388444423E+00
          0                 5           1             4    7     1       0.2097432906E-04       5    7    1         0.1222680242E-02      0.3249376320E-02

    ------------------------------------------------
       NWT REQUIRED            5 OUTER ITERATIONS 
       AND A TOTAL OF          9 INNER ITERATIONS.
    ------------------------------------------------

 NO OUTPUT CONTROL FOR STRESS PERIOD    9   TIME STEP   20
 
 SOLVING FOR HEAD 
                                                   Max.-Head-Change                         Max.-Flux-Residual
  Residual-Control   Outer-Iter.   Inner-Iter.     Column Row Layer    Maximum-Head-Change  Column Row Layer    Maximum-Flux-Residual          L2-NORM 
          0                 1           2             5    6     1       0.4433250996E-01       5    6    1         0.2398603108E+01      0.6254327443E+01
          0                 2           2             4    7     1      -0.1219974895E+00       5    6    1        -0.6589586209E+01      0.1618455746E+02
          0                 3           2             4    7     1       0.1596433957E-01       5    6    1         0.8837114630E+00      0.2164734984E+01
          0                 4           2             4    7     1      -0.6352374256E-03       5    6    1        -0.3613730301E-01      0.8874299700E-01
          0                 5           1             4    7     1       0.7832750531E-05       5    6    1         0.4575218275E-03      0.1163308167E-02

    ------------------------------------------------
       NWT REQUIRED            5 OUTER ITERATIONS 
       AND A TOTAL OF          9 INNER ITERATIONS.
    ------------------------------------------------

 NO OUTPUT CONTROL FOR STRESS PERIOD    9   TIME STEP   21
 
 SOLVING FOR HEAD 
                                                   Max.-Head-Change                         Max.-Flux-Residual
  Residual-Control   Outer-Iter.   Inner-Iter.     Column Row Layer    Maximum-Head-Change  Column Row Layer    Maximum-Flux-Residual          L2-NORM 
          0                 1           2             5    6     1       0.4566551868E-01       5    6    1         0.2471620873E+01      0.6405403371E+01
          0                 2           2             5    7     1      -0.4457937493E-01       5    6    1        -0.2438474466E+01      0.5971807212E+01
          0                 3           2             4    7     1       0.4275129730E-01       5    6    1         0.2362007608E+01      0.5801868609E+01
          0                 4           2             4    7     1      -0.1701124592E-02       5    6    1        -0.9658277361E-01      0.2388346544E+00
          0                 5           1             4    7     1       0.2097558665E-04       5    7    1         0.1222648900E-02      0.3249583021E-02

    ------------------------------------------------
       NWT REQUIRED            5 OUTER ITERATIONS 
       AND A TOTAL OF          9 INNER ITERATIONS.
    ------------------------------------------------

 NO OUTPUT CONTROL FOR STRESS PERIOD    9   TIME STEP   22
 
 SOLVING FOR HEAD 
                                                   Max.-Head-Change                         Max.-Flux-Residual
  Residual-Control   Outer-Iter.   Inner-Iter.     Column Row Layer    Maximum-Head-Change  Column Row Layer    Maximum-Flux-Residual          L2-NORM 
          0                 1           2             5    6     1       0.4388257716E-01       5    6    1         0.2373341982E+01      0.6212131227E+01
          0                 2           2             4    7     1      -0.1220335091E+00       5    6    1        -0.6587055392E+01      0.1618239996E+02
          0                 3           2             4    7     1       0.1596689800E-01       5    6    1         0.8835377065E+00      0.2164595824E+01
          0                 4           2             4    7     1      -0.6353392332E-03       5    6    1        -0.3613001818E-01      0.8873694517E-01
          0                 5           1             4    7     1       0.7834006330E-05       5    6    1         0.4574174011E-03      0.1163230952E-02

    ------------------------------------------------
       NWT REQUIRED            5 OUTER ITERATIONS 
       AND A TOTAL OF          9 INNER ITERATIONS.
    ------------------------------------------------

 NO OUTPUT CONTROL FOR STRESS PERIOD    9   TIME STEP   23
 
 SOLVING FOR HEAD 
                                                   Max.-Head-Change                         Max.-Flux-Residual
  Residual-Control   Outer-Iter.   Inner-Iter.     Column Row Layer    Maximum-Head-Change  Column Row Layer    Maximum-Flux-Residual          L2-NORM 
          0                 1           2             5    6     1       0.4524896160E-01       5    6    1         0.2448217816E+01      0.6365368956E+01
          0                 2           2             4    7     1      -0.4460202840E-01       5    6    1        -0.2436135655E+01      0.5969693655E+01
          0                 3           2             4    7     1       0.4275369056E-01       5    6    1         0.2361845321E+01      0.5801741814E+01
          0                 4           2             4    7     1      -0.1701219836E-02       5    6    1        -0.9657602039E-01      0.2388273141E+00
          0                 5           1             4    7     1       0.2097676101E-04       5    7    1         0.1222624168E-02      0.3238899204E-02

    ------------------------------------------------
       NWT REQUIRED            5 OUTER ITERATIONS 
       AND A TOTAL OF          9 INNER ITERATIONS.
    ------------------------------------------------

 NO OUTPUT CONTROL FOR STRESS PERIOD    9   TIME STEP   24
 
 SOLVING FOR HEAD 
                                                   Max.-Head-Change                         Max.-Flux-Residual
  Residual-Control   Outer-Iter.   Inner-Iter.     Column Row Layer    Maximum-Head-Change  Column Row Layer    Maximum-Flux-Residual          L2-NORM 
          0                 1           2             5    6     1       0.4349755193E-01       5    6    1         0.2351693968E+01      0.6175807131E+01
          0                 2           2             4    7     1      -0.1220656302E+00       5    6    1        -0.6584891604E+01      0.1618061654E+02
          0                 3           2             4    7     1       0.1596906935E-01       5    6    1         0.8833831501E+00      0.2164465665E+01
          0                 4           2             4    7     1      -0.6354256377E-03       5    6    1        -0.3612353658E-01      0.8873127226E-01
          0                 5           1             4    7     1       0.7835071367E-05       5    6    1         0.4573243802E-03      0.1163286673E-02

    ------------------------------------------------
       NWT REQUIRED            5 OUTER ITERATIONS 
       AND A TOTAL OF          9 INNER ITERATIONS.
    ------------------------------------------------

 NO OUTPUT CONTROL FOR STRESS PERIOD    9   TIME STEP   25
 
 SOLVING FOR HEAD 
                                                   Max.-Head-Change                         Max.-Flux-Residual
  Residual-Control   Outer-Iter.   Inner-Iter.     Column Row Layer    Maximum-Head-Change  Column Row Layer    Maximum-Flux-Residual          L2-NORM 
          0                 1           2             5    6     1       0.4489348762E-01       5    6    1         0.2428213624E+01      0.6330894485E+01
          0                 2           2             4    7     1      -0.4463224054E-01       5    6    1        -0.2434135295E+01      0.5967934060E+01
          0                 3           2             4    7     1       0.4275580046E-01       5    6    1         0.2361705295E+01      0.5801634423E+01
          0                 4           2             4    7     1      -0.1701303803E-02       5    6    1        -0.9657018924E-01      0.2388203720E+00
          0                 5           1             4    7     1       0.2097779659E-04       4    7    1         0.1222605498E-02      0.3248734982E-02

    ------------------------------------------------
       NWT REQUIRED            5 OUTER ITERATIONS 
       AND A TOTAL OF          9 INNER ITERATIONS.
    ------------------------------------------------

 NO OUTPUT CONTROL FOR STRESS PERIOD    9   TIME STEP   26
 
 SOLVING FOR HEAD 
                                                   Max.-Head-Change                         Max.-Flux-Residual
  Residual-Control   Outer-Iter.   Inner-Iter.     Column Row Layer    Maximum-Head-Change  Column Row Layer    Maximum-Flux-Residual          L2-NORM 
          0                 1           2             5    6     1       0.4316945414E-01       5    6    1         0.2333213070E+01      0.6144611985E+01
          0                 2           2             4    7     1      -0.1220942863E+00       5    6    1        -0.6583044521E+01      0.1617915136E+02
          0                 3           2             4    7     1       0.1597102150E-01       5    6    1         0.8832518781E+00      0.2164359227E+01
          0                 4           2             4    7     1      -0.6355033199E-03       5    6    1        -0.3611802300E-01      0.8872656127E-01
          0                 5           1             4    7     1       0.7836028981E-05       5    6    1         0.4572446685E-03      0.1163084466E-02

    ------------------------------------------------
       NWT REQUIRED            5 OUTER ITERATIONS 
       AND A TOTAL OF          9 INNER ITERATIONS.
    ------------------------------------------------

 NO OUTPUT CONTROL FOR STRESS PERIOD    9   TIME STEP   27
 
 SOLVING FOR HEAD 
                                                   Max.-Head-Change                         Max.-Flux-Residual
  Residual-Control   Outer-Iter.   Inner-Iter.     Column Row Layer    Maximum-Head-Change  Column Row Layer    Maximum-Flux-Residual          L2-NORM 
          0                 1           2             5    6     1       0.4459077786E-01       5    6    1         0.2411144594E+01      0.6301260080E+01
          0                 2           2             4    7     1      -0.4465920329E-01       5    6    1        -0.2432427969E+01      0.5966486503E+01
          0                 3           2             4    7     1       0.4275767756E-01       5    6    1         0.2361585304E+01      0.5801545844E+01
          0                 4           2             4    7     1      -0.1701378505E-02       5    6    1        -0.9656518769E-01      0.2388138455E+00
          0                 5           1             4    7     1       0.2097871735E-04       4    7    1         0.1222659460E-02      0.3248923360E-02

    ------------------------------------------------
       NWT REQUIRED            5 OUTER ITERATIONS 
       AND A TOTAL OF          9 INNER ITERATIONS.
    ------------------------------------------------

 NO OUTPUT CONTROL FOR STRESS PERIOD    9   TIME STEP   28
 
 SOLVING FOR HEAD 
                                                   Max.-Head-Change                         Max.-Flux-Residual
  Residual-Control   Outer-Iter.   Inner-Iter.     Column Row Layer    Maximum-Head-Change  Column Row Layer    Maximum-Flux-Residual          L2-NORM 
          0                 1           2             5    6     1       0.4289085690E-01       5    6    1         0.2317484473E+01      0.6117891612E+01
          0                 2           2             4    7     1      -0.1221199040E+00       5    6    1        -0.6581470757E+01      0.1617796365E+02
          0                 3           2             4    7     1       0.1597278356E-01       5    6    1         0.8831408314E+00      0.2164273997E+01
          0                 4           2             4    7     1      -0.6355734378E-03       5    6    1        -0.3611335016E-01      0.8872272995E-01
          0                 5           1             4    7     1       0.7836893960E-05       5    6    1         0.4571765744E-03      0.1163013270E-02

    ------------------------------------------------
       NWT REQUIRED            5 OUTER ITERATIONS 
       AND A TOTAL OF          9 INNER ITERATIONS.
    ------------------------------------------------

 NO OUTPUT CONTROL FOR STRESS PERIOD    9   TIME STEP   29
 
 SOLVING FOR HEAD 
                                                   Max.-Head-Change                         Max.-Flux-Residual
  Residual-Control   Outer-Iter.   Inner-Iter.     Column Row Layer    Maximum-Head-Change  Column Row Layer    Maximum-Flux-Residual          L2-NORM 
          0                 1           2             5    6     1       0.4433453720E-01       5    6    1         0.2396658612E+01      0.6275867928E+01
          0                 2           2             4    7     1      -0.4468338829E-01       5    6    1        -0.2430979897E+01      0.5965318952E+01
          0                 3           2             4    7     1       0.4275938026E-01       5    6    1         0.2361484415E+01      0.5801478007E+01
          0                 4           2             4    7     1      -0.1701446266E-02       5    6    1        -0.9656097619E-01      0.2388083610E+00
          0                 5           1             4    7     1       0.2097955298E-04       4    7    1         0.1222708158E-02      0.3249088908E-02

    ------------------------------------------------
       NWT REQUIRED            5 OUTER ITERATIONS 
       AND A TOTAL OF          9 INNER ITERATIONS.
    ------------------------------------------------

 NO OUTPUT CONTROL FOR STRESS PERIOD    9   TIME STEP   30



 STREAM LISTING     PERIOD      9   STEP       30

 LAYER ROW COL. STREAM  RCH.  FLOW INTO     FLOW TO   FLOW OUT OF   OVRLND.     DIRECT     STREAM       STREAM     STREAM     STREAM   STREAMBED  STREAMBED
                SEG.NO.  NO.  STRM. RCH.    AQUIFER    STRM. RCH.    RUNOFF     PRECIP       ET          HEAD       DEPTH      WIDTH   CONDCTNC.   GRADIENT

   1    1    1     1     1    4.5750E+01  3.2289E-01   4.5427E+01  0.000E+00  0.000E+00  0.000E+00  1.09442E+03  1.372E+00  1.641E+01  7.386E-02  1.457E+00
   1    2    2     1     2    4.5427E+01  5.0023E-01   4.4927E+01  0.000E+00  0.000E+00  0.000E+00  1.08943E+03  1.369E+00  1.636E+01  1.145E-01  1.456E+00
   1    3    3     1     3    4.4927E+01  4.2678E-01   4.4500E+01  0.000E+00  0.000E+00  0.000E+00  1.08378E+03  1.366E+00  1.629E+01  9.776E-02  1.455E+00
   1    3    4     1     4    4.4500E+01  3.9314E-01   4.4107E+01  0.000E+00  0.000E+00  0.000E+00  1.07877E+03  1.363E+00  1.624E+01  9.011E-02  1.454E+00
   1    4    5     2     1    4.2107E+01  3.6245E-01   4.1744E+01  0.000E+00  0.000E+00  0.000E+00  1.07358E+03  1.647E+00  1.200E+01  7.800E-02  1.549E+00
   1    5    6     2     2    4.1744E+01  2.7835E-01   4.1466E+01  0.000E+00  0.000E+00  0.000E+00  1.06815E+03  1.639E+00  1.200E+01  6.000E-02  1.546E+00
   1    6    6     2     3    4.1466E+01  2.7796E-01   4.1188E+01  0.000E+00  0.000E+00  0.000E+00  1.06343E+03  1.633E+00  1.200E+01  6.000E-02  1.544E+00
   1    7    6     2     4    4.1188E+01  2.7756E-01   4.0910E+01  0.000E+00  0.000E+00  0.000E+00  1.05870E+03  1.626E+00  1.200E+01  6.000E-02  1.542E+00
   1    8    6     2     5    4.0910E+01  2.7717E-01   4.0633E+01  0.000E+00  0.000E+00  0.000E+00  1.05398E+03  1.619E+00  1.200E+01  6.000E-02  1.540E+00
   1    3    5     3     1    2.0000E+00  2.8252E-01   1.7175E+00  0.000E+00  0.000E+00  0.000E+00  1.07555E+03  1.909E+00  9.636E+00  7.227E-02  1.955E+00
   1    3    6     3     2    1.7175E+00  2.4905E-01   1.4684E+00  0.000E+00  0.000E+00  0.000E+00  1.07264E+03  1.727E+00  8.909E+00  6.682E-02  1.864E+00
   1    3    7     3     3    1.4684E+00  1.9718E-01   1.2712E+00  0.000E+00  0.000E+00  0.000E+00  1.06987E+03  1.555E+00  8.218E+00  5.547E-02  1.777E+00
   1    4    8     3     4    1.2712E+00  2.2567E-01   1.0456E+00  0.000E+00  0.000E+00  0.000E+00  1.06682E+03  1.364E+00  7.455E+00  6.709E-02  1.682E+00
   1    5    8     3     5    1.0456E+00  1.5790E-01   8.8768E-01  0.000E+00  0.000E+00  0.000E+00  1.06362E+03  1.164E+00  6.655E+00  4.991E-02  1.582E+00
   1    6    8     3     6    8.8768E-01  5.5980E-02   8.3170E-01  0.000E+00  0.000E+00  0.000E+00  1.06158E+03  1.036E+00  6.145E+00  1.844E-02  1.518E+00
   1    5   10     4     1    1.0000E+01  9.0919E-02   9.9091E+00  0.000E+00  0.000E+00  0.000E+00  1.07836E+03  6.368E-01  1.000E+01  2.500E-02  1.212E+00
   1    5    9     4     2    9.9091E+00  1.8158E-01   9.7275E+00  0.000E+00  0.000E+00  0.000E+00  1.07154E+03  6.315E-01  1.000E+01  5.000E-02  1.211E+00
   1    6    8     4     3    9.7275E+00  1.2689E-01   9.6006E+00  0.000E+00  0.000E+00  0.000E+00  1.06381E+03  6.256E-01  1.000E+01  3.500E-02  1.209E+00
   1    6    8     5     1    1.0432E+01  2.2686E-01   1.0205E+01  0.000E+00  0.000E+00  0.000E+00  1.05868E+03  6.790E-01  1.542E+01  6.166E-02  1.226E+00
   1    7    7     5     2    1.0205E+01  2.7894E-01   9.9265E+00  0.000E+00  0.000E+00  0.000E+00  1.05417E+03  6.732E-01  1.519E+01  7.594E-02  1.224E+00
   1    8    7     5     3    9.9265E+00  1.9221E-01   9.7343E+00  0.000E+00  0.000E+00  0.000E+00  1.04992E+03  6.676E-01  1.497E+01  5.241E-02  1.223E+00
   1    8    6     5     4    9.7343E+00  1.3577E-01   9.5985E+00  0.000E+00  0.000E+00  0.000E+00  1.04691E+03  6.637E-01  1.482E+01  3.706E-02  1.221E+00
   1    9    6     6     1    2.3936E+01  2.5115E-01   2.3685E+01  0.000E+00  0.000E+00  0.000E+00  1.04391E+03  1.186E+00  1.200E+01  6.000E-02  1.395E+00
   1   10    7     6     2    2.3685E+01  2.5070E-01   2.3434E+01  0.000E+00  0.000E+00  0.000E+00  1.03936E+03  1.178E+00  1.200E+01  6.000E-02  1.393E+00
   1   11    7     6     3    2.3434E+01  2.5025E-01   2.3184E+01  0.000E+00  0.000E+00  0.000E+00  1.03481E+03  1.171E+00  1.200E+01  6.000E-02  1.390E+00
   1   12    7     6     4    2.3184E+01  2.4980E-01   2.2934E+01  0.000E+00  0.000E+00  0.000E+00  1.03025E+03  1.163E+00  1.200E+01  6.000E-02  1.388E+00
   1   13    7     6     5    2.2934E+01 -9.7308E-03   2.2944E+01  0.000E+00  0.000E+00  0.000E+00  1.02707E+03  1.160E+00  1.200E+01  2.400E-01 -1.352E-02
   1   14    9     7     1    1.5000E+02  1.3358E+00   1.4866E+02  0.000E+00  0.000E+00  0.000E+00  1.03987E+03  2.288E+00  5.529E+01  5.593E-01  7.961E-01
   1   13    8     7     2    1.4866E+02  1.8225E+00   1.4684E+02  0.000E+00  0.000E+00  0.000E+00  1.03478E+03  2.279E+00  5.526E+01  6.148E-01  9.882E-01
   1   13    7     7     3    1.4684E+02  1.4412E+00   1.4540E+02  0.000E+00  0.000E+00  0.000E+00  1.02969E+03  2.271E+00  5.522E+01  5.585E-01  8.602E-01
   1   13    6     8     1    1.6834E+02  8.6668E-01   1.6748E+02  0.000E+00  0.000E+00  0.000E+00  1.02481E+03  2.939E+00  4.261E+01  4.342E-01  6.653E-01
   1   13    5     8     2    1.6748E+02  1.1929E-01   1.6736E+02  0.000E+00  0.000E+00  0.000E+00  1.01856E+03  2.935E+00  4.256E+01  4.337E-01  9.168E-02
   1   13    4     8     3    1.6736E+02 -2.5383E+00   1.6990E+02  0.000E+00  0.000E+00  0.000E+00  1.01232E+03  2.943E+00  4.268E+01  4.349E+00 -1.946E-01
   1   13    3     8     4    1.6990E+02 -3.6286E+00   1.7353E+02  0.000E+00  0.000E+00  0.000E+00  1.00609E+03  2.963E+00  4.297E+01  4.379E+00 -2.762E-01
   1   13    2     8     5    1.7353E+02 -2.4532E+00   1.7598E+02  0.000E+00  0.000E+00  0.000E+00  9.99858E+02  2.983E+00  4.325E+01  4.408E+00 -1.855E-01
   1   13    1     8     6    1.7598E+02 -1.9065E+00   1.7788E+02  0.000E+00  0.000E+00  0.000E+00  9.94872E+02  2.997E+00  4.345E+01  2.657E+00 -2.392E-01
   1    8    6     9     1    2.6296E+01  0.0000E+00   2.6296E+01  0.000E+00  0.000E+00  0.000E+00  1.08280E+03  4.048E+00  4.000E+00  0.000E+00  2.349E+00
   1    8    5     9     2    2.6296E+01  0.0000E+00   2.6296E+01  0.000E+00  0.000E+00  0.000E+00  1.08230E+03  4.048E+00  4.000E+00  0.000E+00  2.349E+00





UNSATURATED ZONE PACKAGE VOLUMETRIC BUDGET FOR  TIME STEP    30 STRESS PERIOD    9
  ------------------------------------------------------------------------------



     CUMULATIVE VOLUMES      L**3       RATES FOR THIS TIME STEP      L**3/T
     ------------------                 ------------------------

           IN:                                      IN:
           ---                                      ---
        INFILTRATION =   479873077.8069          INFILTRATION =          27.1438

          OUT:                                     OUT:
          ----                                     ----
              UZF ET =   392217243.1286                UZF ET =          49.6308
        UZF RECHARGE =       73224.0000          UZF RECHARGE =       0.0000E+00

            IN - OUT =    87582610.6783              IN - OUT =         -22.4870

          STORAGE:                                 STORAGE:
          --------                                 --------
      STORAGE CHANGE =    87582587.6009        STORAGE CHANGE =         -22.4870

 PERCENT DISCREPANCY IS DIFFERENCE BETWEEN IN-OUT MINUS CHANGE IN STORAGE
 DIVIDED BY THE AVERAGE OF IN AND OUT TIMES 100

 PERCENT DISCREPANCY =           0.00     PERCENT DISCREPANCY =           0.00






1
  VOLUMETRIC BUDGET FOR AGRICULTURAL FIELDS AT  END OF TIME STEP   30, STRESS PERIOD   9
  ------------------------------------------------------------------------------

     CUMULATIVE VOLUMES      L**3       RATES FOR THIS TIME STEP      L**3/T
     ------------------                 ------------------------

           IN:                                      IN:
           ---                                      ---
               AG WELLS  =   151824560.0000                 AG WELLS  =           0.0000
      DIVERSION SEGMENTS =   310137792.0000        DIVERSION SEGMENTS =          26.2958
           GW IRRIGATION =           0.0000             GW IRRIGATION =           0.0000
           SW IRRIGATION =           0.0000             SW IRRIGATION =           0.0000
        SYSTEM LOSSES GW =           0.0000          SYSTEM LOSSES GW =           0.0000
        SYSTEM LOSSES SW =           0.0000          SYSTEM LOSSES SW =           0.0000

                TOTAL IN =   461962368.0000                  TOTAL IN =          26.2958

          OUT:                                     OUT:
          ----                                     ----
               AG WELLS  =           0.0000                 AG WELLS  =           0.0000
      DIVERSION SEGMENTS =           0.0000        DIVERSION SEGMENTS =           0.0000
           GW IRRIGATION =   151824560.0000             GW IRRIGATION =           0.0000
           SW IRRIGATION =   310143904.0000             SW IRRIGATION =          26.2963
        SYSTEM LOSSES GW =           0.0000          SYSTEM LOSSES GW =           0.0000
        SYSTEM LOSSES SW =           0.0000          SYSTEM LOSSES SW =           0.0000

               TOTAL OUT =   461968448.0000                 TOTAL OUT =          26.2963

                IN - OUT =       -6080.0000                  IN - OUT =      -5.2643E-04

     PERCENT DISCREPANCY =          -0.00         PERCENT DISCREPANCY =          -0.00



1
  VOLUMETRIC BUDGET FOR ENTIRE MODEL AT END OF TIME STEP   30, STRESS PERIOD   9
  ------------------------------------------------------------------------------

     CUMULATIVE VOLUMES      L**3       RATES FOR THIS TIME STEP      L**3/T
     ------------------                 ------------------------

           IN:                                      IN:
           ---                                      ---
             STORAGE     =   189097488.0000               STORAGE     =          12.9169
       CONSTANT HEAD     =           0.0000         CONSTANT HEAD     =           0.0000
     HEAD DEP BOUNDS     =     6036450.5000       HEAD DEP BOUNDS     =           0.2858
      STREAM LEAKAGE     =   257656336.0000        STREAM LEAKAGE     =          12.1053
        UZF RECHARGE     =       73223.9531          UZF RECHARGE     =           0.0000
               GW ET     =           0.0000                 GW ET     =           0.0000
     SURFACE LEAKAGE     =           0.0000       SURFACE LEAKAGE     =           0.0000
           AG WELLS      =           0.0000             AG WELLS      =           0.0000

                TOTAL IN =   452863488.0000                  TOTAL IN =          25.3080

          OUT:                                     OUT:
          ----                                     ----
             STORAGE     =    65072712.0000               STORAGE     =          14.4831
       CONSTANT HEAD     =           0.0000         CONSTANT HEAD     =           0.0000
     HEAD DEP BOUNDS     =     6155589.5000       HEAD DEP BOUNDS     =           0.2884
      STREAM LEAKAGE     =   228262672.0000        STREAM LEAKAGE     =          10.5363
        UZF RECHARGE     =           0.0000          UZF RECHARGE     =           0.0000
               GW ET     =     1552216.2500                 GW ET     =           0.0000
     SURFACE LEAKAGE     =           0.0000       SURFACE LEAKAGE     =           0.0000
           AG WELLS      =   151824560.0000             AG WELLS      =           0.0000

               TOTAL OUT =   452867776.0000                 TOTAL OUT =          25.3078

                IN - OUT =       -4288.0000                  IN - OUT =       1.4496E-04

     PERCENT DISCREPANCY =          -0.00         PERCENT DISCREPANCY =           0.00






         TIME SUMMARY AT END OF TIME STEP   30 IN STRESS PERIOD    9
                    SECONDS     MINUTES      HOURS       DAYS        YEARS
                    -----------------------------------------------------------
   TIME STEP LENGTH  87667.      1461.1      24.352      1.0147     2.77799E-03
 STRESS PERIOD TIME 2.63000E+06  43833.      730.56      30.440     8.33397E-02
         TOTAL TIME 2.11264E+07 3.52107E+05  5868.4      244.52     0.66945    
1
1
                            STRESS PERIOD NO.   10, LENGTH =   2630000.    
                            -----------------------------------------------

                              NUMBER OF TIME STEPS =    30

                               MULTIPLIER FOR DELT =     1.000

                            INITIAL TIME STEP SIZE =   87666.66    

 REUSING NON-PARAMETER GHB CELLS FROM LAST STRESS PERIOD

      2 GHB CELLS

 REUSING STREAM SEGMENT DATA FROM LAST STRESS PERIOD



            AREAL INFILTRATION RATE
 READING ON UNIT   19 WITH FORMAT: (FREE)              

            1           2           3           4           5           6           7           8           9          10
 ........................................................................................................................
   1   1.0000E-10  2.0000E-10   0.000       0.000       0.000       0.000       0.000       0.000       0.000       0.000    
   2   2.0000E-10  1.0000E-10  2.0000E-10   0.000       0.000      8.0000E-10  8.0000E-10  5.0000E-10   0.000       0.000    
   3    0.000      5.0000E-10  1.0000E-10  1.0000E-10  8.0000E-10  8.0000E-10  5.0000E-10  5.0000E-10   0.000       0.000    
   4   8.0000E-10  5.0000E-10  1.0000E-10  1.0000E-10  1.0000E-10  1.0000E-10  1.0000E-10  1.0000E-10  2.0000E-10   0.000    
   5   8.0000E-10  5.0000E-10  1.0000E-10  1.0000E-10  1.0000E-10  1.0000E-10  1.0000E-10  1.0000E-10  1.0000E-10  1.0000E-10
   6   8.0000E-10  5.0000E-10  5.0000E-10  2.0000E-10  2.0000E-10  1.0000E-10  1.0000E-10  1.0000E-10  1.0000E-10  5.0000E-10
   7   8.0000E-10  5.0000E-10  5.0000E-10  2.0000E-10  2.0000E-10  1.0000E-10  1.0000E-10  2.0000E-10  2.0000E-10   0.000    
   8    0.000      5.0000E-10  5.0000E-10  2.0000E-10  2.0000E-10  1.0000E-10  1.0000E-10  2.0000E-10  5.0000E-10   0.000    
   9    0.000      5.0000E-10  5.0000E-10  2.0000E-10  2.0000E-10  1.0000E-10  1.0000E-10  2.0000E-10  5.0000E-10   0.000    
  10    0.000      5.0000E-10  5.0000E-10  2.0000E-10  2.0000E-10  1.0000E-10  1.0000E-10  2.0000E-10  5.0000E-10  8.0000E-10
  11    0.000      1.0000E-10  1.0000E-10  1.0000E-10  1.0000E-10  1.0000E-10  1.0000E-10  2.0000E-10  5.0000E-10   0.000    
  12   1.0000E-10  1.0000E-10  1.0000E-10  1.0000E-10  1.0000E-10  1.0000E-10  1.0000E-10  1.0000E-10  2.0000E-10   0.000    
  13   1.0000E-10  1.0000E-10  2.0000E-10  2.0000E-10  2.0000E-10  2.0000E-10  2.0000E-10  1.0000E-10  1.0000E-10   0.000    
  14    0.000      2.0000E-10  5.0000E-10  5.0000E-10  5.0000E-10  5.0000E-10  5.0000E-10  2.0000E-10  1.0000E-10   0.000    
  15    0.000       0.000      8.0000E-10  8.0000E-10  8.0000E-10  8.0000E-10   0.000       0.000       0.000       0.000    

                  ET RATE =  7.500000E-08

 USING ET EXTINCTION DEPTH FROM PREVIOUS STRESS PERIOD. CURRENT PERIOD IS:      10

 USING EXTINCTION WATER CONTENT FROM PREVIOUS STRESS PERIOD. CURRENT PERIOD IS:      10

 USING AIR ENTRY PRESSURE FROM PREVIOUS STRESS PERIOD. CURRENT PERIOD IS:      10

 USING ROOT PRESSURE HEAD FROM PREVIOUS STRESS PERIOD. CURRENT PERIOD IS:      10

 USING ROOT ACTIVITY FROM PREVIOUS STRESS PERIOD. CURRENT PERIOD IS:      10

 PROCESSING AG STRESS PERIOD DATA

 READING AG STRESS PERIOD DATA

 READING IRRIGATION SEGMENT

 READING IRRIGATION WELL

 READING SUPPLEMENTAL WELL

 END PROCESSING AG STRESS PERIOD DATA OPTIONS
 
 SOLVING FOR HEAD 
                                                   Max.-Head-Change                         Max.-Flux-Residual
  Residual-Control   Outer-Iter.   Inner-Iter.     Column Row Layer    Maximum-Head-Change  Column Row Layer    Maximum-Flux-Residual          L2-NORM 
          0                 1           2             5    6     1       0.4265524687E-01       5    6    1         0.2304181778E+01      0.6082261992E+01
          0                 2           2             5    6     1      -0.5962892252E-02       5    6    1        -0.3301411155E+00      0.8478203781E+00
          0                 3           2             4    7     1       0.2135996945E-02       5    6    1         0.1195540709E+00      0.2922481035E+00
          0                 4           1             4    7     1      -0.1003615739E-03       5    6    1        -0.5761327908E-02      0.1406964842E-01
          0                 5           1             4    7     1      -0.1954288302E-04       4    7    1        -0.1108302693E-02      0.2894530973E-02

    ------------------------------------------------
       NWT REQUIRED            5 OUTER ITERATIONS 
       AND A TOTAL OF          8 INNER ITERATIONS.
    ------------------------------------------------

 NO OUTPUT CONTROL FOR STRESS PERIOD   10   TIME STEP    1
 
 SOLVING FOR HEAD 
                                                   Max.-Head-Change                         Max.-Flux-Residual
  Residual-Control   Outer-Iter.   Inner-Iter.     Column Row Layer    Maximum-Head-Change  Column Row Layer    Maximum-Flux-Residual          L2-NORM 
          0                 1           2             5    6     1       0.4106852642E-01       5    6    1         0.2217027242E+01      0.5844863521E+01
          0                 2           2             4    7     1      -0.3866044481E-01       5    6    1        -0.2091700895E+01      0.5138850076E+01
          0                 3           2             4    7     1       0.3652553785E-01       5    6    1         0.2016418870E+01      0.4954154911E+01
          0                 4           2             4    7     1      -0.1453393018E-02       5    6    1        -0.8245132322E-01      0.2106805968E+00
          0                 5           1             7   13     1       0.6426394568E-04       7   13    1         0.3681941850E-02      0.4629893072E-02

    ------------------------------------------------
       NWT REQUIRED            5 OUTER ITERATIONS 
       AND A TOTAL OF          9 INNER ITERATIONS.
    ------------------------------------------------

 NO OUTPUT CONTROL FOR STRESS PERIOD   10   TIME STEP    2
 
 SOLVING FOR HEAD 
                                                   Max.-Head-Change                         Max.-Flux-Residual
  Residual-Control   Outer-Iter.   Inner-Iter.     Column Row Layer    Maximum-Head-Change  Column Row Layer    Maximum-Flux-Residual          L2-NORM 
          0                 1           2             5    7     1       0.4005183676E-01       5    6    1         0.2134429174E+01      0.5685962186E+01
          0                 2           2             5    7     1      -0.3895939904E-02       5    6    1        -0.2134412160E+00      0.5761227786E+00
          0                 3           2             5    7     1       0.2652991787E-03       5    6    1         0.1494090768E-01      0.4029693332E-01
          0                 4           1             5    7     1      -0.1055650524E-04       5    6    1        -0.6110839095E-03      0.1646149425E-02

    ------------------------------------------------
       NWT REQUIRED            4 OUTER ITERATIONS 
       AND A TOTAL OF          7 INNER ITERATIONS.
    ------------------------------------------------

 NO OUTPUT CONTROL FOR STRESS PERIOD   10   TIME STEP    3
 
 SOLVING FOR HEAD 
                                                   Max.-Head-Change                         Max.-Flux-Residual
  Residual-Control   Outer-Iter.   Inner-Iter.     Column Row Layer    Maximum-Head-Change  Column Row Layer    Maximum-Flux-Residual          L2-NORM 
          0                 1           2             5    7     1       0.3922863269E-01       5    7    1         0.2081576721E+01      0.5523302863E+01
          0                 2           2             4    7     1      -0.3861324457E-01       5    7    1        -0.2078157073E+01      0.5111498173E+01
          0                 3           2             4    7     1       0.3652232229E-01       5    7    1         0.2015470628E+01      0.4952294945E+01
          0                 4           2             4    7     1      -0.1453265099E-02       5    7    1        -0.8242286661E-01      0.2106656864E+00
          0                 5           1             7   13     1       0.6455581708E-04       7   13    1         0.3698656685E-02      0.4642578323E-02

    ------------------------------------------------
       NWT REQUIRED            5 OUTER ITERATIONS 
       AND A TOTAL OF          9 INNER ITERATIONS.
    ------------------------------------------------

 NO OUTPUT CONTROL FOR STRESS PERIOD   10   TIME STEP    4
 
 SOLVING FOR HEAD 
                                                   Max.-Head-Change                         Max.-Flux-Residual
  Residual-Control   Outer-Iter.   Inner-Iter.     Column Row Layer    Maximum-Head-Change  Column Row Layer    Maximum-Flux-Residual          L2-NORM 
          0                 1           2             4    7     1       0.3850801444E-01       5    7    1         0.2038787107E+01      0.5380480436E+01
          0                 2           2             4    7     1      -0.3745778623E-02       5    7    1        -0.2038782515E+00      0.5459959204E+00
          0                 3           2             4    7     1       0.2550736485E-03       5    7    1         0.1427148813E-01      0.3819048618E-01
          0                 4           1             4    7     1      -0.1014961874E-04       5    7    1        -0.5837046770E-03      0.1560135323E-02

    ------------------------------------------------
       NWT REQUIRED            4 OUTER ITERATIONS 
       AND A TOTAL OF          7 INNER ITERATIONS.
    ------------------------------------------------

 NO OUTPUT CONTROL FOR STRESS PERIOD   10   TIME STEP    5
 
 SOLVING FOR HEAD 
                                                   Max.-Head-Change                         Max.-Flux-Residual
  Residual-Control   Outer-Iter.   Inner-Iter.     Column Row Layer    Maximum-Head-Change  Column Row Layer    Maximum-Flux-Residual          L2-NORM 
          0                 1           2             4    7     1       0.3820922532E-01       4    7    1         0.2000834672E+01      0.5232848648E+01
          0                 2           2             4    7     1      -0.3855713150E-01       4    7    1        -0.2070083571E+01      0.5086331039E+01
          0                 3           2             4    7     1       0.3651849218E-01       4    7    1         0.2014905404E+01      0.4950575493E+01
          0                 4           2             4    7     1      -0.1453112722E-02       4    7    1        -0.8240881203E-01      0.2106520527E+00
          0                 5           1             7   13     1       0.6483028248E-04       7   13    1         0.3714371395E-02      0.4654508633E-02

    ------------------------------------------------
       NWT REQUIRED            5 OUTER ITERATIONS 
       AND A TOTAL OF          9 INNER ITERATIONS.
    ------------------------------------------------

 NO OUTPUT CONTROL FOR STRESS PERIOD   10   TIME STEP    6
 
 SOLVING FOR HEAD 
                                                   Max.-Head-Change                         Max.-Flux-Residual
  Residual-Control   Outer-Iter.   Inner-Iter.     Column Row Layer    Maximum-Head-Change  Column Row Layer    Maximum-Flux-Residual          L2-NORM 
          0                 1           2             4    7     1       0.3789156559E-01       4    7    1         0.1985306158E+01      0.5103954600E+01
          0                 2           2             4    7     1      -0.3685818954E-02       4    7    1        -0.1985308403E+00      0.5187588363E+00
          0                 3           2             4    7     1       0.2509905785E-03       4    7    1         0.1389716270E-01      0.3628580252E-01
          0                 4           1             4    7     1      -0.9987149979E-05       4    7    1        -0.5683947561E-03      0.1482423682E-02

    ------------------------------------------------
       NWT REQUIRED            4 OUTER ITERATIONS 
       AND A TOTAL OF          7 INNER ITERATIONS.
    ------------------------------------------------

 NO OUTPUT CONTROL FOR STRESS PERIOD   10   TIME STEP    7
 
 SOLVING FOR HEAD 
                                                   Max.-Head-Change                         Max.-Flux-Residual
  Residual-Control   Outer-Iter.   Inner-Iter.     Column Row Layer    Maximum-Head-Change  Column Row Layer    Maximum-Flux-Residual          L2-NORM 
          0                 1           2             4    7     1       0.3755694335E-01       4    7    1         0.1968799165E+01      0.4969319362E+01
          0                 2           2             4    7     1      -0.3849366988E-01       4    7    1        -0.2066880257E+01      0.5063104206E+01
          0                 3           2             4    7     1       0.3651415516E-01       4    7    1         0.2014681150E+01      0.4948980568E+01
          0                 4           2             4    7     1      -0.1452940170E-02       4    7    1        -0.8239959157E-01      0.2106455165E+00
          0                 5           1             7   13     1       0.6508552895E-04       7   13    1         0.3728991969E-02      0.4666975822E-02

    ------------------------------------------------
       NWT REQUIRED            5 OUTER ITERATIONS 
       AND A TOTAL OF          9 INNER ITERATIONS.
    ------------------------------------------------

 NO OUTPUT CONTROL FOR STRESS PERIOD   10   TIME STEP    8
 
 SOLVING FOR HEAD 
                                                   Max.-Head-Change                         Max.-Flux-Residual
  Residual-Control   Outer-Iter.   Inner-Iter.     Column Row Layer    Maximum-Head-Change  Column Row Layer    Maximum-Flux-Residual          L2-NORM 
          0                 1           2             4    7     1       0.3720728040E-01       4    7    1         0.1951420083E+01      0.4852532463E+01
          0                 2           2             4    7     1      -0.3619259834E-02       4    7    1        -0.1951424434E+00      0.4940235602E+00
          0                 3           2             4    7     1       0.2464581180E-03       4    7    1         0.1365997281E-01      0.3455586583E-01
          0                 4           1             4    7     1      -0.9806799254E-05       4    7    1        -0.5586936863E-03      0.1411747876E-02

    ------------------------------------------------
       NWT REQUIRED            4 OUTER ITERATIONS 
       AND A TOTAL OF          7 INNER ITERATIONS.
    ------------------------------------------------

 NO OUTPUT CONTROL FOR STRESS PERIOD   10   TIME STEP    9
 
 SOLVING FOR HEAD 
                                                   Max.-Head-Change                         Max.-Flux-Residual
  Residual-Control   Outer-Iter.   Inner-Iter.     Column Row Layer    Maximum-Head-Change  Column Row Layer    Maximum-Flux-Residual          L2-NORM 
          0                 1           2             4    7     1       0.3684397874E-01       4    7    1         0.1933246400E+01      0.4729196768E+01
          0                 2           2             4    7     1      -0.3842429910E-01       4    7    1        -0.2063325167E+01      0.5041613345E+01
          0                 3           2             4    7     1       0.3650941028E-01       4    7    1         0.2014432276E+01      0.4947501680E+01
          0                 4           2             4    7     1      -0.1452751385E-02       4    7    1        -0.8238936586E-01      0.2106360372E+00
          0                 5           1             7   13     1       0.6532290672E-04       7   13    1         0.3742582870E-02      0.4677538494E-02

    ------------------------------------------------
       NWT REQUIRED            5 OUTER ITERATIONS 
       AND A TOTAL OF          9 INNER ITERATIONS.
    ------------------------------------------------

 NO OUTPUT CONTROL FOR STRESS PERIOD   10   TIME STEP   10
 
 SOLVING FOR HEAD 
                                                   Max.-Head-Change                         Max.-Flux-Residual
  Residual-Control   Outer-Iter.   Inner-Iter.     Column Row Layer    Maximum-Head-Change  Column Row Layer    Maximum-Flux-Residual          L2-NORM 
          0                 1           2             4    7     1       0.3646874243E-01       4    7    1         0.1914372951E+01      0.4622999166E+01
          0                 2           2             4    7     1      -0.3547422700E-02       4    7    1        -0.1914378944E+00      0.4714738676E+00
          0                 3           2             4    7     1       0.2415662515E-03       4    7    1         0.1340065273E-01      0.3297855746E-01
          0                 4           1             4    7     1      -0.9612147149E-05       4    7    1        -0.5480874768E-03      0.1347229140E-02

    ------------------------------------------------
       NWT REQUIRED            4 OUTER ITERATIONS 
       AND A TOTAL OF          7 INNER ITERATIONS.
    ------------------------------------------------

 NO OUTPUT CONTROL FOR STRESS PERIOD   10   TIME STEP   11
 
 SOLVING FOR HEAD 
                                                   Max.-Head-Change                         Max.-Flux-Residual
  Residual-Control   Outer-Iter.   Inner-Iter.     Column Row Layer    Maximum-Head-Change  Column Row Layer    Maximum-Flux-Residual          L2-NORM 
          0                 1           2             4    7     1       0.3608289517E-01       4    7    1         0.1894873309E+01      0.4509515079E+01
          0                 2           2             4    7     1      -0.3835024230E-01       4    7    1        -0.2059488002E+01      0.5021676711E+01
          0                 3           2             4    7     1       0.3650434170E-01       4    7    1         0.2014163659E+01      0.4946125514E+01
          0                 4           2             4    7     1      -0.1452549717E-02       4    7    1        -0.8237833449E-01      0.2106273876E+00
          0                 5           1             7   13     1       0.6554315235E-04       7   13    1         0.3755198317E-02      0.4687447086E-02

    ------------------------------------------------
       NWT REQUIRED            5 OUTER ITERATIONS 
       AND A TOTAL OF          9 INNER ITERATIONS.
    ------------------------------------------------

 NO OUTPUT CONTROL FOR STRESS PERIOD   10   TIME STEP   12
 
 SOLVING FOR HEAD 
                                                   Max.-Head-Change                         Max.-Flux-Residual
  Residual-Control   Outer-Iter.   Inner-Iter.     Column Row Layer    Maximum-Head-Change  Column Row Layer    Maximum-Flux-Residual          L2-NORM 
          0                 1           2             4    7     1       0.3568780291E-01       4    7    1         0.1874823522E+01      0.4412622889E+01
          0                 2           2             4    7     1      -0.3471460469E-02       4    7    1        -0.1874830768E+00      0.4508356730E+00
          0                 3           2             4    7     1       0.2363934868E-03       4    7    1         0.1312381419E-01      0.3153477787E-01
          0                 4           1             4    7     1      -0.9406318341E-05       4    7    1        -0.5367647811E-03      0.1288245989E-02

    ------------------------------------------------
       NWT REQUIRED            4 OUTER ITERATIONS 
       AND A TOTAL OF          7 INNER ITERATIONS.
    ------------------------------------------------

 NO OUTPUT CONTROL FOR STRESS PERIOD   10   TIME STEP   13
 
 SOLVING FOR HEAD 
                                                   Max.-Head-Change                         Max.-Flux-Residual
  Residual-Control   Outer-Iter.   Inner-Iter.     Column Row Layer    Maximum-Head-Change  Column Row Layer    Maximum-Flux-Residual          L2-NORM 
          0                 1           2             4    7     1       0.3528488103E-01       4    7    1         0.1854301719E+01      0.4307776563E+01
          0                 2           2             4    7     1      -0.3827258871E-01       4    7    1        -0.2055430952E+01      0.5003140149E+01
          0                 3           2             4    7     1       0.3649902439E-01       4    7    1         0.2013879653E+01      0.4944842300E+01
          0                 4           2             4    7     1      -0.1452338149E-02       4    7    1        -0.8236667552E-01      0.2106195865E+00
          0                 5           1             7   13     1       0.6575090636E-04       7   13    1         0.3766899142E-02      0.4696563807E-02

    ------------------------------------------------
       NWT REQUIRED            5 OUTER ITERATIONS 
       AND A TOTAL OF          9 INNER ITERATIONS.
    ------------------------------------------------

 NO OUTPUT CONTROL FOR STRESS PERIOD   10   TIME STEP   14
 
 SOLVING FOR HEAD 
                                                   Max.-Head-Change                         Max.-Flux-Residual
  Residual-Control   Outer-Iter.   Inner-Iter.     Column Row Layer    Maximum-Head-Change  Column Row Layer    Maximum-Flux-Residual          L2-NORM 
          0                 1           2             4    7     1       0.3487503520E-01       4    7    1         0.1833359257E+01      0.4219105594E+01
          0                 2           2             4    7     1      -0.3392390493E-02       4    7    1        -0.1833367432E+00      0.4313119077E+00
          0                 3           2             4    7     1       0.2310091006E-03       4    7    1         0.1283356983E-01      0.3016899610E-01
          0                 4           1             4    7     1      -0.9192068409E-05       4    7    1        -0.5248937757E-03      0.1232511833E-02

    ------------------------------------------------
       NWT REQUIRED            4 OUTER ITERATIONS 
       AND A TOTAL OF          7 INNER ITERATIONS.
    ------------------------------------------------

 NO OUTPUT CONTROL FOR STRESS PERIOD   10   TIME STEP   15
 
 SOLVING FOR HEAD 
                                                   Max.-Head-Change                         Max.-Flux-Residual
  Residual-Control   Outer-Iter.   Inner-Iter.     Column Row Layer    Maximum-Head-Change  Column Row Layer    Maximum-Flux-Residual          L2-NORM 
          0                 1           2             4    7     1       0.3445968288E-01       4    7    1         0.1812073087E+01      0.4122353529E+01
          0                 2           2             4    7     1      -0.3819230202E-01       4    7    1        -0.2051208167E+01      0.4985923404E+01
          0                 3           2             4    7     1       0.3649353908E-01       4    7    1         0.2013584049E+01      0.4943645348E+01
          0                 4           2             4    7     1      -0.1452119908E-02       4    7    1        -0.8235454382E-01      0.2106138350E+00
          0                 5           1             7   13     1       0.6593976616E-04       7   13    1         0.3777715148E-02      0.4704530895E-02

    ------------------------------------------------
       NWT REQUIRED            5 OUTER ITERATIONS 
       AND A TOTAL OF          9 INNER ITERATIONS.
    ------------------------------------------------

 NO OUTPUT CONTROL FOR STRESS PERIOD   10   TIME STEP   16
 
 SOLVING FOR HEAD 
                                                   Max.-Head-Change                         Max.-Flux-Residual
  Residual-Control   Outer-Iter.   Inner-Iter.     Column Row Layer    Maximum-Head-Change  Column Row Layer    Maximum-Flux-Residual          L2-NORM 
          0                 1           2             4    7     1       0.3403954385E-01       4    7    1         0.1790485503E+01      0.4041476036E+01
          0                 2           2             4    7     1      -0.3311132219E-02       4    7    1        -0.1790494338E+00      0.4145118425E+00
          0                 3           2             4    7     1       0.2254757034E-03       4    7    1         0.1253345741E-01      0.2899354773E-01
          0                 4           1             4    7     1      -0.8971889407E-05       4    7    1        -0.5126191525E-03      0.1184471755E-02

    ------------------------------------------------
       NWT REQUIRED            4 OUTER ITERATIONS 
       AND A TOTAL OF          7 INNER ITERATIONS.
    ------------------------------------------------

 NO OUTPUT CONTROL FOR STRESS PERIOD   10   TIME STEP   17
 
 SOLVING FOR HEAD 
                                                   Max.-Head-Change                         Max.-Flux-Residual
  Residual-Control   Outer-Iter.   Inner-Iter.     Column Row Layer    Maximum-Head-Change  Column Row Layer    Maximum-Flux-Residual          L2-NORM 
          0                 1           2             4    7     1       0.3361572490E-01       4    7    1         0.1768657671E+01      0.3951413629E+01
          0                 2           2             4    7     1      -0.3811017271E-01       4    7    1        -0.2046866680E+01      0.4969905943E+01
          0                 3           2             4    7     1       0.3648791132E-01       4    7    1         0.2013280137E+01      0.4942530156E+01
          0                 4           2             4    7     1      -0.1451895981E-02       4    7    1        -0.8234207421E-01      0.2106081893E+00
          0                 5           1             7   13     1       0.6611901826E-04       7   13    1         0.3788078064E-02      0.4713900187E-02

    ------------------------------------------------
       NWT REQUIRED            5 OUTER ITERATIONS 
       AND A TOTAL OF          9 INNER ITERATIONS.
    ------------------------------------------------

 NO OUTPUT CONTROL FOR STRESS PERIOD   10   TIME STEP   18
 
 SOLVING FOR HEAD 
                                                   Max.-Head-Change                         Max.-Flux-Residual
  Residual-Control   Outer-Iter.   Inner-Iter.     Column Row Layer    Maximum-Head-Change  Column Row Layer    Maximum-Flux-Residual          L2-NORM 
          0                 1           2             4    7     1       0.3318910134E-01       4    7    1         0.1746639045E+01      0.3876930221E+01
          0                 2           2             4    7     1      -0.3228408021E-02       4    7    1        -0.1746648319E+00      0.3984486105E+00
          0                 3           2             4    7     1       0.2198424861E-03       4    7    1         0.1222653474E-01      0.2786962964E-01
          0                 4           1             4    7     1      -0.8747739077E-05       4    7    1        -0.5000660215E-03      0.1138643885E-02

    ------------------------------------------------
       NWT REQUIRED            4 OUTER ITERATIONS 
       AND A TOTAL OF          7 INNER ITERATIONS.
    ------------------------------------------------

 NO OUTPUT CONTROL FOR STRESS PERIOD   10   TIME STEP   19
 
 SOLVING FOR HEAD 
                                                   Max.-Head-Change                         Max.-Flux-Residual
  Residual-Control   Outer-Iter.   Inner-Iter.     Column Row Layer    Maximum-Head-Change  Column Row Layer    Maximum-Flux-Residual          L2-NORM 
          0                 1           2             4    7     1       0.3276034536E-01       4    7    1         0.1724467624E+01      0.3792720081E+01
          0                 2           2             4    7     1      -0.3802692985E-01       4    7    1        -0.2042447709E+01      0.4954910242E+01
          0                 3           2             4    7     1       0.3648220555E-01       4    7    1         0.2012970804E+01      0.4941484703E+01
          0                 4           2             4    7     1      -0.1451668955E-02       4    7    1        -0.8232938458E-01      0.2106014546E+00
          0                 5           1             7   13     1       0.6628842292E-04       7   13    1         0.3797780281E-02      0.4720302663E-02

    ------------------------------------------------
       NWT REQUIRED            5 OUTER ITERATIONS 
       AND A TOTAL OF          9 INNER ITERATIONS.
    ------------------------------------------------

 NO OUTPUT CONTROL FOR STRESS PERIOD   10   TIME STEP   20
 
 SOLVING FOR HEAD 
                                                   Max.-Head-Change                         Max.-Flux-Residual
  Residual-Control   Outer-Iter.   Inner-Iter.     Column Row Layer    Maximum-Head-Change  Column Row Layer    Maximum-Flux-Residual          L2-NORM 
          0                 1           2             4    7     1       0.3233034289E-01       4    7    1         0.1702193003E+01      0.3723973676E+01
          0                 2           2             4    7     1      -0.3144875001E-02       4    7    1        -0.1702202535E+00      0.3835440378E+00
          0                 3           2             4    7     1       0.2141541897E-03       4    7    1         0.1191541388E-01      0.2682627924E-01
          0                 4           1             4    7     1      -0.8521395912E-05       4    7    1        -0.4873411456E-03      0.1095859086E-02

    ------------------------------------------------
       NWT REQUIRED            4 OUTER ITERATIONS 
       AND A TOTAL OF          7 INNER ITERATIONS.
    ------------------------------------------------

 NO OUTPUT CONTROL FOR STRESS PERIOD   10   TIME STEP   21
 
 SOLVING FOR HEAD 
                                                   Max.-Head-Change                         Max.-Flux-Residual
  Residual-Control   Outer-Iter.   Inner-Iter.     Column Row Layer    Maximum-Head-Change  Column Row Layer    Maximum-Flux-Residual          L2-NORM 
          0                 1           2             4    7     1       0.3189964582E-01       4    7    1         0.1679846355E+01      0.3644998233E+01
          0                 2           2             4    7     1      -0.3794316655E-01       4    7    1        -0.2037985601E+01      0.4940849203E+01
          0                 3           2             4    7     1       0.3647646194E-01       4    7    1         0.2012658452E+01      0.4940503336E+01
          0                 4           2             4    7     1      -0.1451440960E-02       4    7    1        -0.8231657318E-01      0.2105963669E+00
          0                 5           1             7   13     1       0.6643697508E-04       7   13    1         0.3806292141E-02      0.4727281264E-02

    ------------------------------------------------
       NWT REQUIRED            5 OUTER ITERATIONS 
       AND A TOTAL OF          9 INNER ITERATIONS.
    ------------------------------------------------

 NO OUTPUT CONTROL FOR STRESS PERIOD   10   TIME STEP   22
 
 SOLVING FOR HEAD 
                                                   Max.-Head-Change                         Max.-Flux-Residual
  Residual-Control   Outer-Iter.   Inner-Iter.     Column Row Layer    Maximum-Head-Change  Column Row Layer    Maximum-Flux-Residual          L2-NORM 
          0                 1           2             4    7     1       0.3146915702E-01       4    7    1         0.1657478441E+01      0.3581433929E+01
          0                 2           2             4    7     1      -0.3061105242E-02       4    7    1        -0.1657488086E+00      0.3696802804E+00
          0                 3           2             4    7     1       0.2084497782E-03       4    7    1         0.1160241250E-01      0.2585614659E-01
          0                 4           1             4    7     1      -0.8294412293E-05       4    7    1        -0.4745393753E-03      0.1056232661E-02

    ------------------------------------------------
       NWT REQUIRED            4 OUTER ITERATIONS 
       AND A TOTAL OF          7 INNER ITERATIONS.
    ------------------------------------------------

 NO OUTPUT CONTROL FOR STRESS PERIOD   10   TIME STEP   23
 
 SOLVING FOR HEAD 
                                                   Max.-Head-Change                         Max.-Flux-Residual
  Residual-Control   Outer-Iter.   Inner-Iter.     Column Row Layer    Maximum-Head-Change  Column Row Layer    Maximum-Flux-Residual          L2-NORM 
          0                 1           2             4    7     1       0.3103903800E-01       4    7    1         0.1635099218E+01      0.3507131138E+01
          0                 2           2             4    7     1      -0.3785941055E-01       4    7    1        -0.2033510892E+01      0.4927640091E+01
          0                 3           2             4    7     1       0.3647071723E-01       4    7    1         0.2012345220E+01      0.4939581791E+01
          0                 4           2             4    7     1      -0.1451212375E-02       4    7    1        -0.8230372748E-01      0.2105905235E+00
          0                 5           1             7   13     1       0.6657882714E-04       7   13    1         0.3814410584E-02      0.4733662777E-02

    ------------------------------------------------
       NWT REQUIRED            5 OUTER ITERATIONS 
       AND A TOTAL OF          9 INNER ITERATIONS.
    ------------------------------------------------

 NO OUTPUT CONTROL FOR STRESS PERIOD   10   TIME STEP   24
 
 SOLVING FOR HEAD 
                                                   Max.-Head-Change                         Max.-Flux-Residual
  Residual-Control   Outer-Iter.   Inner-Iter.     Column Row Layer    Maximum-Head-Change  Column Row Layer    Maximum-Flux-Residual          L2-NORM 
          0                 1           2             4    7     1       0.3061022891E-01       4    7    1         0.1612761263E+01      0.3448242892E+01
          0                 2           2             4    7     1      -0.2977554934E-02       4    7    1        -0.1612770905E+00      0.3567517688E+00
          0                 3           2             4    7     1       0.2027603122E-03       4    7    1         0.1128939209E-01      0.2495127586E-01
          0                 4           1             4    7     1      -0.8068023307E-05       4    7    1        -0.4617368299E-03      0.1019193547E-02

    ------------------------------------------------
       NWT REQUIRED            4 OUTER ITERATIONS 
       AND A TOTAL OF          7 INNER ITERATIONS.
    ------------------------------------------------

 NO OUTPUT CONTROL FOR STRESS PERIOD   10   TIME STEP   25
 
 SOLVING FOR HEAD 
                                                   Max.-Head-Change                         Max.-Flux-Residual
  Residual-Control   Outer-Iter.   Inner-Iter.     Column Row Layer    Maximum-Head-Change  Column Row Layer    Maximum-Flux-Residual          L2-NORM 
          0                 1           2             4    7     1       0.3018293728E-01       4    7    1         0.1590476480E+01      0.3378136622E+01
          0                 2           2             4    7     1      -0.3777609209E-01       4    7    1        -0.2029048613E+01      0.4915213401E+01
          0                 3           2             4    7     1       0.3646500162E-01       4    7    1         0.2012032858E+01      0.4938714559E+01
          0                 4           2             4    7     1      -0.1450984947E-02       4    7    1        -0.8229091901E-01      0.2105844770E+00
          0                 5           1             7   13     1       0.6670794594E-04       7   13    1         0.3821805990E-02      0.4739607029E-02

    ------------------------------------------------
       NWT REQUIRED            5 OUTER ITERATIONS 
       AND A TOTAL OF          9 INNER ITERATIONS.
    ------------------------------------------------

 NO OUTPUT CONTROL FOR STRESS PERIOD   10   TIME STEP   26
 
 SOLVING FOR HEAD 
                                                   Max.-Head-Change                         Max.-Flux-Residual
  Residual-Control   Outer-Iter.   Inner-Iter.     Column Row Layer    Maximum-Head-Change  Column Row Layer    Maximum-Flux-Residual          L2-NORM 
          0                 1           2             4    7     1       0.2975760351E-01       4    7    1         0.1568270381E+01      0.3323500866E+01
          0                 2           2             4    7     1      -0.2894617575E-02       4    7    1        -0.1568279928E+00      0.3446640025E+00
          0                 3           2             4    7     1       0.1971125871E-03       4    7    1         0.1097795521E-01      0.2410031012E-01
          0                 4           1             4    7     1      -0.7843294576E-05       4    7    1        -0.4489990329E-03      0.9844829278E-03

    ------------------------------------------------
       NWT REQUIRED            4 OUTER ITERATIONS 
       AND A TOTAL OF          7 INNER ITERATIONS.
    ------------------------------------------------

 NO OUTPUT CONTROL FOR STRESS PERIOD   10   TIME STEP   27
 
 SOLVING FOR HEAD 
                                                   Max.-Head-Change                         Max.-Flux-Residual
  Residual-Control   Outer-Iter.   Inner-Iter.     Column Row Layer    Maximum-Head-Change  Column Row Layer    Maximum-Flux-Residual          L2-NORM 
          0                 1           2             4    7     1       0.2933476543E-01       4    7    1         0.1546173139E+01      0.3257176667E+01
          0                 2           2             4    7     1      -0.3769354432E-01       4    7    1        -0.2024618266E+01      0.4903505684E+01
          0                 3           2             4    7     1       0.3645933805E-01       4    7    1         0.2011722734E+01      0.4937897079E+01
          0                 4           2             4    7     1      -0.1450759589E-02       4    7    1        -0.8227820357E-01      0.2105780552E+00
          0                 5           1             7   13     1       0.6682679885E-04       7   13    1         0.3828612340E-02      0.4745007378E-02

    ------------------------------------------------
       NWT REQUIRED            5 OUTER ITERATIONS 
       AND A TOTAL OF          9 INNER ITERATIONS.
    ------------------------------------------------

 NO OUTPUT CONTROL FOR STRESS PERIOD   10   TIME STEP   28
 
 SOLVING FOR HEAD 
                                                   Max.-Head-Change                         Max.-Flux-Residual
  Residual-Control   Outer-Iter.   Inner-Iter.     Column Row Layer    Maximum-Head-Change  Column Row Layer    Maximum-Flux-Residual          L2-NORM 
          0                 1           2             4    7     1       0.2891477847E-01       4    7    1         0.1524205305E+01      0.3206429343E+01
          0                 2           2             4    7     1      -0.2812633419E-02       4    7    1        -0.1524214685E+00      0.3333544338E+00
          0                 3           2             4    7     1       0.1915297726E-03       4    7    1         0.1066949853E-01      0.2331326020E-01
          0                 4           1             4    7     1      -0.7621149424E-05       4    7    1        -0.4363831445E-03      0.9521764316E-03

    ------------------------------------------------
       NWT REQUIRED            4 OUTER ITERATIONS 
       AND A TOTAL OF          7 INNER ITERATIONS.
    ------------------------------------------------

 NO OUTPUT CONTROL FOR STRESS PERIOD   10   TIME STEP   29
 
 SOLVING FOR HEAD 
                                                   Max.-Head-Change                         Max.-Flux-Residual
  Residual-Control   Outer-Iter.   Inner-Iter.     Column Row Layer    Maximum-Head-Change  Column Row Layer    Maximum-Flux-Residual          L2-NORM 
          0                 1           2             4    7     1       0.2849796256E-01       4    7    1         0.1502385275E+01      0.3143518343E+01
          0                 2           2             4    7     1      -0.3761210219E-01       4    7    1        -0.2020239460E+01      0.4892460252E+01
          0                 3           2             4    7     1       0.3645374960E-01       4    7    1         0.2011416217E+01      0.4937136114E+01
          0                 4           2             4    7     1      -0.1450537219E-02       4    7    1        -0.8226563726E-01      0.2105781135E+00
          0                 5           1             7   13     1       0.6693814694E-04       7   13    1         0.3834989542E-02      0.4748987825E-02

    ------------------------------------------------
       NWT REQUIRED            5 OUTER ITERATIONS 
       AND A TOTAL OF          9 INNER ITERATIONS.
    ------------------------------------------------

 NO OUTPUT CONTROL FOR STRESS PERIOD   10   TIME STEP   30



 STREAM LISTING     PERIOD     10   STEP       30

 LAYER ROW COL. STREAM  RCH.  FLOW INTO     FLOW TO   FLOW OUT OF   OVRLND.     DIRECT     STREAM       STREAM     STREAM     STREAM   STREAMBED  STREAMBED
                SEG.NO.  NO.  STRM. RCH.    AQUIFER    STRM. RCH.    RUNOFF     PRECIP       ET          HEAD       DEPTH      WIDTH   CONDCTNC.   GRADIENT

   1    1    1     1     1    3.5250E+01  2.8720E-01   3.4963E+01  0.000E+00  0.000E+00  0.000E+00  1.09434E+03  1.294E+00  1.486E+01  6.688E-02  1.431E+00
   1    2    2     1     2    3.4963E+01  4.4467E-01   3.4518E+01  0.000E+00  0.000E+00  0.000E+00  1.08935E+03  1.291E+00  1.480E+01  1.036E-01  1.430E+00
   1    3    3     1     3    3.4518E+01  3.7912E-01   3.4139E+01  0.000E+00  0.000E+00  0.000E+00  1.08371E+03  1.288E+00  1.474E+01  8.841E-02  1.429E+00
   1    3    4     1     4    3.4139E+01  3.4902E-01   3.3790E+01  0.000E+00  0.000E+00  0.000E+00  1.07869E+03  1.285E+00  1.468E+01  8.145E-02  1.428E+00
   1    4    5     2     1    3.1790E+01  3.4244E-01   3.1447E+01  0.000E+00  0.000E+00  0.000E+00  1.07332E+03  1.390E+00  1.200E+01  7.800E-02  1.463E+00
   1    5    6     2     2    3.1447E+01  2.6294E-01   3.1184E+01  0.000E+00  0.000E+00  0.000E+00  1.06789E+03  1.382E+00  1.200E+01  6.000E-02  1.461E+00
   1    6    6     2     3    3.1184E+01  2.6252E-01   3.0922E+01  0.000E+00  0.000E+00  0.000E+00  1.06317E+03  1.375E+00  1.200E+01  6.000E-02  1.458E+00
   1    7    6     2     4    3.0922E+01  2.6210E-01   3.0660E+01  0.000E+00  0.000E+00  0.000E+00  1.05844E+03  1.368E+00  1.200E+01  6.000E-02  1.456E+00
   1    8    6     2     5    3.0660E+01  2.6168E-01   3.0398E+01  0.000E+00  0.000E+00  0.000E+00  1.05372E+03  1.361E+00  1.200E+01  6.000E-02  1.454E+00
   1    3    5     3     1    2.0000E+00  2.8252E-01   1.7175E+00  0.000E+00  0.000E+00  0.000E+00  1.07555E+03  1.909E+00  9.636E+00  7.227E-02  1.955E+00
   1    3    6     3     2    1.7175E+00  2.4905E-01   1.4684E+00  0.000E+00  0.000E+00  0.000E+00  1.07264E+03  1.727E+00  8.909E+00  6.682E-02  1.864E+00
   1    3    7     3     3    1.4684E+00  1.9718E-01   1.2712E+00  0.000E+00  0.000E+00  0.000E+00  1.06987E+03  1.555E+00  8.218E+00  5.547E-02  1.777E+00
   1    4    8     3     4    1.2712E+00  2.2567E-01   1.0456E+00  0.000E+00  0.000E+00  0.000E+00  1.06682E+03  1.364E+00  7.455E+00  6.709E-02  1.682E+00
   1    5    8     3     5    1.0456E+00  1.5790E-01   8.8768E-01  0.000E+00  0.000E+00  0.000E+00  1.06362E+03  1.164E+00  6.655E+00  4.991E-02  1.582E+00
   1    6    8     3     6    8.8768E-01  5.5980E-02   8.3170E-01  0.000E+00  0.000E+00  0.000E+00  1.06158E+03  1.036E+00  6.145E+00  1.844E-02  1.518E+00
   1    5   10     4     1    1.0000E+01  9.0919E-02   9.9091E+00  0.000E+00  0.000E+00  0.000E+00  1.07836E+03  6.368E-01  1.000E+01  2.500E-02  1.212E+00
   1    5    9     4     2    9.9091E+00  1.8158E-01   9.7275E+00  0.000E+00  0.000E+00  0.000E+00  1.07154E+03  6.315E-01  1.000E+01  5.000E-02  1.211E+00
   1    6    8     4     3    9.7275E+00  1.2689E-01   9.6006E+00  0.000E+00  0.000E+00  0.000E+00  1.06381E+03  6.256E-01  1.000E+01  3.500E-02  1.209E+00
   1    6    8     5     1    1.0432E+01  2.2686E-01   1.0205E+01  0.000E+00  0.000E+00  0.000E+00  1.05868E+03  6.790E-01  1.542E+01  6.166E-02  1.226E+00
   1    7    7     5     2    1.0205E+01  2.7894E-01   9.9265E+00  0.000E+00  0.000E+00  0.000E+00  1.05417E+03  6.732E-01  1.519E+01  7.594E-02  1.224E+00
   1    8    7     5     3    9.9265E+00  1.9221E-01   9.7343E+00  0.000E+00  0.000E+00  0.000E+00  1.04992E+03  6.676E-01  1.497E+01  5.241E-02  1.223E+00
   1    8    6     5     4    9.7343E+00  1.3577E-01   9.5985E+00  0.000E+00  0.000E+00  0.000E+00  1.04691E+03  6.637E-01  1.482E+01  3.706E-02  1.221E+00
   1    9    6     6     1    1.7557E+01  2.3902E-01   1.7318E+01  0.000E+00  0.000E+00  0.000E+00  1.04371E+03  9.837E-01  1.200E+01  6.000E-02  1.328E+00
   1   10    7     6     2    1.7318E+01  2.3853E-01   1.7079E+01  0.000E+00  0.000E+00  0.000E+00  1.03916E+03  9.756E-01  1.200E+01  6.000E-02  1.325E+00
   1   11    7     6     3    1.7079E+01  2.3805E-01   1.6841E+01  0.000E+00  0.000E+00  0.000E+00  1.03460E+03  9.674E-01  1.200E+01  6.000E-02  1.322E+00
   1   12    7     6     4    1.6841E+01  2.3756E-01   1.6603E+01  0.000E+00  0.000E+00  0.000E+00  1.03005E+03  9.593E-01  1.200E+01  6.000E-02  1.320E+00
   1   13    7     6     5    1.6603E+01 -6.1291E-02   1.6665E+01  0.000E+00  0.000E+00  0.000E+00  1.02687E+03  9.562E-01  1.200E+01  2.400E-01 -8.513E-02
   1   14    9     7     1    1.5000E+02  1.3358E+00   1.4866E+02  0.000E+00  0.000E+00  0.000E+00  1.03987E+03  2.288E+00  5.529E+01  5.593E-01  7.961E-01
   1   13    8     7     2    1.4866E+02  1.8229E+00   1.4684E+02  0.000E+00  0.000E+00  0.000E+00  1.03478E+03  2.279E+00  5.526E+01  6.148E-01  9.884E-01
   1   13    7     7     3    1.4684E+02  1.4348E+00   1.4541E+02  0.000E+00  0.000E+00  0.000E+00  1.02969E+03  2.271E+00  5.522E+01  5.585E-01  8.564E-01
   1   13    6     8     1    1.6207E+02  8.3301E-01   1.6124E+02  0.000E+00  0.000E+00  0.000E+00  1.02477E+03  2.897E+00  4.201E+01  4.281E-01  6.487E-01
   1   13    5     8     2    1.6124E+02  9.6868E-02   1.6114E+02  0.000E+00  0.000E+00  0.000E+00  1.01852E+03  2.894E+00  4.196E+01  4.276E-01  7.551E-02
   1   13    4     8     3    1.6114E+02 -2.8411E+00   1.6398E+02  0.000E+00  0.000E+00  0.000E+00  1.01228E+03  2.903E+00  4.209E+01  4.290E+00 -2.208E-01
   1   13    3     8     4    1.6398E+02 -3.9223E+00   1.6790E+02  0.000E+00  0.000E+00  0.000E+00  1.00605E+03  2.926E+00  4.242E+01  4.323E+00 -3.025E-01
   1   13    2     8     5    1.6790E+02 -2.7905E+00   1.7070E+02  0.000E+00  0.000E+00  0.000E+00  9.99823E+02  2.948E+00  4.274E+01  4.355E+00 -2.136E-01
   1   13    1     8     6    1.7070E+02 -2.0755E+00   1.7277E+02  0.000E+00  0.000E+00  0.000E+00  9.94838E+02  2.963E+00  4.297E+01  2.627E+00 -2.633E-01
   1    8    6     9     1    2.2440E+01  0.0000E+00   2.2440E+01  0.000E+00  0.000E+00  0.000E+00  1.08243E+03  3.680E+00  4.000E+00  0.000E+00  2.227E+00
   1    8    5     9     2    2.2440E+01  0.0000E+00   2.2440E+01  0.000E+00  0.000E+00  0.000E+00  1.08193E+03  3.680E+00  4.000E+00  0.000E+00  2.227E+00





UNSATURATED ZONE PACKAGE VOLUMETRIC BUDGET FOR  TIME STEP    30 STRESS PERIOD   10
  ------------------------------------------------------------------------------



     CUMULATIVE VOLUMES      L**3       RATES FOR THIS TIME STEP      L**3/T
     ------------------                 ------------------------

           IN:                                      IN:
           ---                                      ---
        INFILTRATION =   511722819.8769          INFILTRATION =          23.2879

          OUT:                                     OUT:
          ----                                     ----
              UZF ET =   423962341.6769                UZF ET =          12.0675
        UZF RECHARGE =       73224.0000          UZF RECHARGE =       0.0000E+00

            IN - OUT =    87687254.2000              IN - OUT =          11.2204

          STORAGE:                                 STORAGE:
          --------                                 --------
      STORAGE CHANGE =    87687219.4665        STORAGE CHANGE =          11.2204

 PERCENT DISCREPANCY IS DIFFERENCE BETWEEN IN-OUT MINUS CHANGE IN STORAGE
 DIVIDED BY THE AVERAGE OF IN AND OUT TIMES 100

 PERCENT DISCREPANCY =           0.00     PERCENT DISCREPANCY =          -0.00






1
  VOLUMETRIC BUDGET FOR AGRICULTURAL FIELDS AT  END OF TIME STEP   30, STRESS PERIOD  10
  ------------------------------------------------------------------------------

     CUMULATIVE VOLUMES      L**3       RATES FOR THIS TIME STEP      L**3/T
     ------------------                 ------------------------

           IN:                                      IN:
           ---                                      ---
               AG WELLS  =   151827360.0000                 AG WELLS  =           0.0000
      DIVERSION SEGMENTS =   339757888.0000        DIVERSION SEGMENTS =          22.4400
           GW IRRIGATION =           0.0000             GW IRRIGATION =           0.0000
           SW IRRIGATION =           0.0000             SW IRRIGATION =           0.0000
        SYSTEM LOSSES GW =           0.0000          SYSTEM LOSSES GW =           0.0000
        SYSTEM LOSSES SW =           0.0000          SYSTEM LOSSES SW =           0.0000

                TOTAL IN =   491585248.0000                  TOTAL IN =          22.4400

          OUT:                                     OUT:
          ----                                     ----
               AG WELLS  =           0.0000                 AG WELLS  =           0.0000
      DIVERSION SEGMENTS =           0.0000        DIVERSION SEGMENTS =           0.0000
           GW IRRIGATION =   151827360.0000             GW IRRIGATION =           0.0000
           SW IRRIGATION =   339764480.0000             SW IRRIGATION =          22.4404
        SYSTEM LOSSES GW =           0.0000          SYSTEM LOSSES GW =           0.0000
        SYSTEM LOSSES SW =           0.0000          SYSTEM LOSSES SW =           0.0000

               TOTAL OUT =   491591840.0000                 TOTAL OUT =          22.4404

                IN - OUT =       -6592.0000                  IN - OUT =      -4.4823E-04

     PERCENT DISCREPANCY =          -0.00         PERCENT DISCREPANCY =          -0.00



1
  VOLUMETRIC BUDGET FOR ENTIRE MODEL AT END OF TIME STEP   30, STRESS PERIOD  10
  ------------------------------------------------------------------------------

     CUMULATIVE VOLUMES      L**3       RATES FOR THIS TIME STEP      L**3/T
     ------------------                 ------------------------

           IN:                                      IN:
           ---                                      ---
             STORAGE     =   213792544.0000               STORAGE     =           7.4124
       CONSTANT HEAD     =           0.0000         CONSTANT HEAD     =           0.0000
     HEAD DEP BOUNDS     =     6787986.5000       HEAD DEP BOUNDS     =           0.2858
      STREAM LEAKAGE     =   288986528.0000        STREAM LEAKAGE     =          11.7296
        UZF RECHARGE     =       73223.9531          UZF RECHARGE     =           0.0000
               GW ET     =           0.0000                 GW ET     =           0.0000
     SURFACE LEAKAGE     =           0.0000       SURFACE LEAKAGE     =           0.0000
           AG WELLS      =           0.0000             AG WELLS      =           0.0000

                TOTAL IN =   509640256.0000                  TOTAL IN =          19.4278

          OUT:                                     OUT:
          ----                                     ----
             STORAGE     =    93063248.0000               STORAGE     =           7.4472
       CONSTANT HEAD     =           0.0000         CONSTANT HEAD     =           0.0000
     HEAD DEP BOUNDS     =     6916677.0000       HEAD DEP BOUNDS     =           0.2899
      STREAM LEAKAGE     =   256285024.0000        STREAM LEAKAGE     =          11.6907
        UZF RECHARGE     =           0.0000          UZF RECHARGE     =           0.0000
               GW ET     =     1552216.2500                 GW ET     =           0.0000
     SURFACE LEAKAGE     =           0.0000       SURFACE LEAKAGE     =           0.0000
           AG WELLS      =   151827360.0000             AG WELLS      =           0.0000

               TOTAL OUT =   509644544.0000                 TOTAL OUT =          19.4279

                IN - OUT =       -4288.0000                  IN - OUT =      -2.2888E-05

     PERCENT DISCREPANCY =          -0.00         PERCENT DISCREPANCY =          -0.00






         TIME SUMMARY AT END OF TIME STEP   30 IN STRESS PERIOD   10
                    SECONDS     MINUTES      HOURS       DAYS        YEARS
                    -----------------------------------------------------------
   TIME STEP LENGTH  87667.      1461.1      24.352      1.0147     2.77799E-03
 STRESS PERIOD TIME 2.63000E+06  43833.      730.56      30.440     8.33397E-02
         TOTAL TIME 2.37564E+07 3.95940E+05  6599.0      274.96     0.75279    
1
1
                            STRESS PERIOD NO.   11, LENGTH =   2630000.    
                            -----------------------------------------------

                              NUMBER OF TIME STEPS =    30

                               MULTIPLIER FOR DELT =     1.000

                            INITIAL TIME STEP SIZE =   87666.66    

 REUSING NON-PARAMETER GHB CELLS FROM LAST STRESS PERIOD

      2 GHB CELLS

 REUSING STREAM SEGMENT DATA FROM LAST STRESS PERIOD



            AREAL INFILTRATION RATE
 READING ON UNIT   19 WITH FORMAT: (FREE)              

            1           2           3           4           5           6           7           8           9          10
 ........................................................................................................................
   1   1.0000E-10  2.0000E-10   0.000       0.000       0.000       0.000       0.000       0.000       0.000       0.000    
   2   2.0000E-10  1.0000E-10  2.0000E-10   0.000       0.000      8.0000E-10  8.0000E-10  5.0000E-10   0.000       0.000    
   3    0.000      5.0000E-10  1.0000E-10  1.0000E-10  8.0000E-10  8.0000E-10  5.0000E-10  5.0000E-10   0.000       0.000    
   4   8.0000E-10  5.0000E-10  1.0000E-10  1.0000E-10  1.0000E-10  1.0000E-10  1.0000E-10  1.0000E-10  2.0000E-10   0.000    
   5   8.0000E-10  5.0000E-10  1.0000E-10  1.0000E-10  1.0000E-10  1.0000E-10  1.0000E-10  1.0000E-10  1.0000E-10  1.0000E-10
   6   8.0000E-10  5.0000E-10  5.0000E-10  2.0000E-10  2.0000E-10  1.0000E-10  1.0000E-10  1.0000E-10  1.0000E-10  5.0000E-10
   7   8.0000E-10  5.0000E-10  5.0000E-10  2.0000E-10  2.0000E-10  1.0000E-10  1.0000E-10  2.0000E-10  2.0000E-10   0.000    
   8    0.000      5.0000E-10  5.0000E-10  2.0000E-10  2.0000E-10  1.0000E-10  1.0000E-10  2.0000E-10  5.0000E-10   0.000    
   9    0.000      5.0000E-10  5.0000E-10  2.0000E-10  2.0000E-10  1.0000E-10  1.0000E-10  2.0000E-10  5.0000E-10   0.000    
  10    0.000      5.0000E-10  5.0000E-10  2.0000E-10  2.0000E-10  1.0000E-10  1.0000E-10  2.0000E-10  5.0000E-10  8.0000E-10
  11    0.000      1.0000E-10  1.0000E-10  1.0000E-10  1.0000E-10  1.0000E-10  1.0000E-10  2.0000E-10  5.0000E-10   0.000    
  12   1.0000E-10  1.0000E-10  1.0000E-10  1.0000E-10  1.0000E-10  1.0000E-10  1.0000E-10  1.0000E-10  2.0000E-10   0.000    
  13   1.0000E-10  1.0000E-10  2.0000E-10  2.0000E-10  2.0000E-10  2.0000E-10  2.0000E-10  1.0000E-10  1.0000E-10   0.000    
  14    0.000      2.0000E-10  5.0000E-10  5.0000E-10  5.0000E-10  5.0000E-10  5.0000E-10  2.0000E-10  1.0000E-10   0.000    
  15    0.000       0.000      8.0000E-10  8.0000E-10  8.0000E-10  8.0000E-10   0.000       0.000       0.000       0.000    

                  ET RATE =  5.000000E-09

 USING ET EXTINCTION DEPTH FROM PREVIOUS STRESS PERIOD. CURRENT PERIOD IS:      11

 USING EXTINCTION WATER CONTENT FROM PREVIOUS STRESS PERIOD. CURRENT PERIOD IS:      11

 USING AIR ENTRY PRESSURE FROM PREVIOUS STRESS PERIOD. CURRENT PERIOD IS:      11

 USING ROOT PRESSURE HEAD FROM PREVIOUS STRESS PERIOD. CURRENT PERIOD IS:      11

 USING ROOT ACTIVITY FROM PREVIOUS STRESS PERIOD. CURRENT PERIOD IS:      11

 PROCESSING AG STRESS PERIOD DATA

 READING AG STRESS PERIOD DATA

 READING IRRIGATION SEGMENT

 READING IRRIGATION WELL

 READING SUPPLEMENTAL WELL

 END PROCESSING AG STRESS PERIOD DATA OPTIONS
 
 SOLVING FOR HEAD 
                                                   Max.-Head-Change                         Max.-Flux-Residual
  Residual-Control   Outer-Iter.   Inner-Iter.     Column Row Layer    Maximum-Head-Change  Column Row Layer    Maximum-Flux-Residual          L2-NORM 
          0                 1           2             4    7     1       0.2808444331E-01       4    7    1         0.1480722306E+01      0.3075684276E+01
          0                 2           2             4    7     1      -0.2731864110E-02       4    7    1        -0.1480731465E+00      0.3145413723E+00
          0                 3           2             4    7     1       0.1860296855E-03       4    7    1         0.1036511608E-01      0.2200846303E-01
          0                 4           1             4    7     1      -0.7402296001E-05       4    7    1        -0.4239338793E-03      0.8995873954E-03

    ------------------------------------------------
       NWT REQUIRED            4 OUTER ITERATIONS 
       AND A TOTAL OF          7 INNER ITERATIONS.
    ------------------------------------------------

 NO OUTPUT CONTROL FOR STRESS PERIOD   11   TIME STEP    1
 
 SOLVING FOR HEAD 
                                                   Max.-Head-Change                         Max.-Flux-Residual
  Residual-Control   Outer-Iter.   Inner-Iter.     Column Row Layer    Maximum-Head-Change  Column Row Layer    Maximum-Flux-Residual          L2-NORM 
          0                 1           2             4    7     1       0.2767472743E-01       4    7    1         0.1459244974E+01      0.3011138127E+01
          0                 2           2             4    7     1      -0.2692009735E-02       4    7    1        -0.1459254008E+00      0.3011005119E+00
          0                 3           2             4    7     1       0.1833157518E-03       4    7    1         0.1021477391E-01      0.2107575507E-01
          0                 4           1             4    7     1      -0.7294305736E-05       4    7    1        -0.4177848698E-03      0.8619312283E-03

    ------------------------------------------------
       NWT REQUIRED            4 OUTER ITERATIONS 
       AND A TOTAL OF          7 INNER ITERATIONS.
    ------------------------------------------------

 NO OUTPUT CONTROL FOR STRESS PERIOD   11   TIME STEP    2
 
 SOLVING FOR HEAD 
                                                   Max.-Head-Change                         Max.-Flux-Residual
  Residual-Control   Outer-Iter.   Inner-Iter.     Column Row Layer    Maximum-Head-Change  Column Row Layer    Maximum-Flux-Residual          L2-NORM 
          0                 1           2             4    7     1       0.2726877278E-01       4    7    1         0.1437950111E+01      0.2959123266E+01
          0                 2           2             4    7     1      -0.2652521213E-02       4    7    1        -0.1437959011E+00      0.2959008709E+00
          0                 3           2             4    7     1       0.1806267320E-03       4    7    1         0.1006570901E-01      0.2071196036E-01
          0                 4           1             4    7     1      -0.7187306950E-05       4    7    1        -0.4116881044E-03      0.8470586973E-03

    ------------------------------------------------
       NWT REQUIRED            4 OUTER ITERATIONS 
       AND A TOTAL OF          7 INNER ITERATIONS.
    ------------------------------------------------

 NO OUTPUT CONTROL FOR STRESS PERIOD   11   TIME STEP    3
 
 SOLVING FOR HEAD 
                                                   Max.-Head-Change                         Max.-Flux-Residual
  Residual-Control   Outer-Iter.   Inner-Iter.     Column Row Layer    Maximum-Head-Change  Column Row Layer    Maximum-Flux-Residual          L2-NORM 
          0                 1           2             4    7     1       0.2686693231E-01       4    7    1         0.1416857625E+01      0.2908598116E+01
          0                 2           2             4    7     1      -0.2613432878E-02       4    7    1        -0.1416866383E+00      0.2908498328E+00
          0                 3           2             4    7     1       0.1779649632E-03       4    7    1         0.9918060671E-02      0.2035849567E-01
          0                 4           1             4    7     1      -0.7081392781E-05       4    7    1        -0.4056492789E-03      0.8326256849E-03

    ------------------------------------------------
       NWT REQUIRED            4 OUTER ITERATIONS 
       AND A TOTAL OF          7 INNER ITERATIONS.
    ------------------------------------------------

 NO OUTPUT CONTROL FOR STRESS PERIOD   11   TIME STEP    4
 
 SOLVING FOR HEAD 
                                                   Max.-Head-Change                         Max.-Flux-Residual
  Residual-Control   Outer-Iter.   Inner-Iter.     Column Row Layer    Maximum-Head-Change  Column Row Layer    Maximum-Flux-Residual          L2-NORM 
          0                 1           2             4    7     1       0.2646938991E-01       4    7    1         0.1395978450E+01      0.2859503427E+01
          0                 2           2             4    7     1      -0.2574762620E-02       4    7    1        -0.1395987059E+00      0.2859418309E+00
          0                 3           2             4    7     1       0.1753316643E-03       4    7    1         0.9771905490E-02      0.2001509583E-01
          0                 4           1             4    7     1      -0.6976611468E-05       4    7    1        -0.3996715282E-03      0.8185665817E-03

    ------------------------------------------------
       NWT REQUIRED            4 OUTER ITERATIONS 
       AND A TOTAL OF          7 INNER ITERATIONS.
    ------------------------------------------------

 NO OUTPUT CONTROL FOR STRESS PERIOD   11   TIME STEP    5
 
 SOLVING FOR HEAD 
                                                   Max.-Head-Change                         Max.-Flux-Residual
  Residual-Control   Outer-Iter.   Inner-Iter.     Column Row Layer    Maximum-Head-Change  Column Row Layer    Maximum-Flux-Residual          L2-NORM 
          0                 1           2             4    7     1       0.2607630909E-01       4    7    1         0.1375322120E+01      0.2811766365E+01
          0                 2           2             4    7     1      -0.2536526344E-02       4    7    1        -0.1375330575E+00      0.2811692872E+00
          0                 3           2             4    7     1       0.1727279180E-03       4    7    1         0.9627310187E-02      0.1968114192E-01
          0                 4           1             4    7     1      -0.6873005723E-05       4    7    1        -0.3937575666E-03      0.8049350485E-03

    ------------------------------------------------
       NWT REQUIRED            4 OUTER ITERATIONS 
       AND A TOTAL OF          7 INNER ITERATIONS.
    ------------------------------------------------

 NO OUTPUT CONTROL FOR STRESS PERIOD   11   TIME STEP    6
 
 SOLVING FOR HEAD 
                                                   Max.-Head-Change                         Max.-Flux-Residual
  Residual-Control   Outer-Iter.   Inner-Iter.     Column Row Layer    Maximum-Head-Change  Column Row Layer    Maximum-Flux-Residual          L2-NORM 
          0                 1           2             4    7     1       0.2568796467E-01       4    7    1         0.1354904481E+01      0.2765341386E+01
          0                 2           2             4    7     1      -0.2498750785E-02       4    7    1        -0.1354912779E+00      0.2765278358E+00
          0                 3           2             4    7     1       0.1701555450E-03       4    7    1         0.9484385705E-02      0.1935631095E-01
          0                 4           1             4    7     1      -0.6770648997E-05       4    7    1        -0.3879119652E-03      0.7916814966E-03

    ------------------------------------------------
       NWT REQUIRED            4 OUTER ITERATIONS 
       AND A TOTAL OF          7 INNER ITERATIONS.
    ------------------------------------------------

 NO OUTPUT CONTROL FOR STRESS PERIOD   11   TIME STEP    7
 
 SOLVING FOR HEAD 
                                                   Max.-Head-Change                         Max.-Flux-Residual
  Residual-Control   Outer-Iter.   Inner-Iter.     Column Row Layer    Maximum-Head-Change  Column Row Layer    Maximum-Flux-Residual          L2-NORM 
          0                 1           2             4    7     1       0.2530420690E-01       4    7    1         0.1334717676E+01      0.2720158608E+01
          0                 2           2             4    7     1      -0.2461421376E-02       4    7    1        -0.1334725813E+00      0.2720104510E+00
          0                 3           2             4    7     1       0.1676135528E-03       4    7    1         0.9343077027E-02      0.1904017869E-01
          0                 4           1             4    7     1      -0.6669500650E-05       4    7    1        -0.3821324251E-03      0.7787340712E-03

    ------------------------------------------------
       NWT REQUIRED            4 OUTER ITERATIONS 
       AND A TOTAL OF          7 INNER ITERATIONS.
    ------------------------------------------------

 NO OUTPUT CONTROL FOR STRESS PERIOD   11   TIME STEP    8
 
 SOLVING FOR HEAD 
                                                   Max.-Head-Change                         Max.-Flux-Residual
  Residual-Control   Outer-Iter.   Inner-Iter.     Column Row Layer    Maximum-Head-Change  Column Row Layer    Maximum-Flux-Residual          L2-NORM 
          0                 1           2             4    7     1       0.2492540868E-01       4    7    1         0.1314783418E+01      0.2676172238E+01
          0                 2           2             4    7     1      -0.2424574395E-02       4    7    1        -0.1314791391E+00      0.2676126121E+00
          0                 3           2             4    7     1       0.1651044124E-03       4    7    1         0.9203536168E-02      0.1873242015E-01
          0                 4           1             4    7     1      -0.6569659808E-05       4    7    1        -0.3764252006E-03      0.7661207467E-03

    ------------------------------------------------
       NWT REQUIRED            4 OUTER ITERATIONS 
       AND A TOTAL OF          7 INNER ITERATIONS.
    ------------------------------------------------

 NO OUTPUT CONTROL FOR STRESS PERIOD   11   TIME STEP    9
 
 SOLVING FOR HEAD 
                                                   Max.-Head-Change                         Max.-Flux-Residual
  Residual-Control   Outer-Iter.   Inner-Iter.     Column Row Layer    Maximum-Head-Change  Column Row Layer    Maximum-Flux-Residual          L2-NORM 
          0                 1           2             4    7     1       0.2455165599E-01       4    7    1         0.1295106304E+01      0.2633342312E+01
          0                 2           2             4    7     1      -0.2388218203E-02       4    7    1        -0.1295114112E+00      0.2633302901E+00
          0                 3           2             4    7     1       0.1626286929E-03       4    7    1         0.9065795306E-02      0.1843270396E-01
          0                 4           1             4    7     1      -0.6471148229E-05       4    7    1        -0.3707915848E-03      0.7538754015E-03

    ------------------------------------------------
       NWT REQUIRED            4 OUTER ITERATIONS 
       AND A TOTAL OF          7 INNER ITERATIONS.
    ------------------------------------------------

 NO OUTPUT CONTROL FOR STRESS PERIOD   11   TIME STEP   10
 
 SOLVING FOR HEAD 
                                                   Max.-Head-Change                         Max.-Flux-Residual
  Residual-Control   Outer-Iter.   Inner-Iter.     Column Row Layer    Maximum-Head-Change  Column Row Layer    Maximum-Flux-Residual          L2-NORM 
          0                 1           2             4    7     1       0.2418274791E-01       4    7    1         0.1275676048E+01      0.2591623112E+01
          0                 2           2             4    7     1      -0.2352333257E-02       4    7    1        -0.1275683689E+00      0.2591589411E+00
          0                 3           2             4    7     1       0.1601850638E-03       4    7    1         0.8929782457E-02      0.1814074576E-01
          0                 4           1             4    7     1      -0.6373914105E-05       4    7    1        -0.3652286566E-03      0.7419232606E-03

    ------------------------------------------------
       NWT REQUIRED            4 OUTER ITERATIONS 
       AND A TOTAL OF          7 INNER ITERATIONS.
    ------------------------------------------------

 NO OUTPUT CONTROL FOR STRESS PERIOD   11   TIME STEP   11
 
 SOLVING FOR HEAD 
                                                   Max.-Head-Change                         Max.-Flux-Residual
  Residual-Control   Outer-Iter.   Inner-Iter.     Column Row Layer    Maximum-Head-Change  Column Row Layer    Maximum-Flux-Residual          L2-NORM 
          0                 1           2             4    7     1       0.2381901562E-01       4    7    1         0.1256511717E+01      0.2550956154E+01
          0                 2           2             4    7     1      -0.2316951775E-02       4    7    1        -0.1256519191E+00      0.2550927701E+00
          0                 3           2             4    7     1       0.1577757184E-03       4    7    1         0.8795631071E-02      0.1785615894E-01
          0                 4           1             4    7     1      -0.6278043899E-05       4    7    1        -0.3597418527E-03      0.7302933760E-03

    ------------------------------------------------
       NWT REQUIRED            4 OUTER ITERATIONS 
       AND A TOTAL OF          7 INNER ITERATIONS.
    ------------------------------------------------

 NO OUTPUT CONTROL FOR STRESS PERIOD   11   TIME STEP   12
 
 SOLVING FOR HEAD 
                                                   Max.-Head-Change                         Max.-Flux-Residual
  Residual-Control   Outer-Iter.   Inner-Iter.     Column Row Layer    Maximum-Head-Change  Column Row Layer    Maximum-Flux-Residual          L2-NORM 
          0                 1           2             4    7     1       0.2346049570E-01       4    7    1         0.1237615742E+01      0.2511309790E+01
          0                 2           2             4    7     1      -0.2282077314E-02       4    7    1        -0.1237623049E+00      0.2511285714E+00
          0                 3           2             4    7     1       0.1554008989E-03       4    7    1         0.8663358175E-02      0.1757873496E-01
          0                 4           1             4    7     1      -0.6183547394E-05       4    7    1        -0.3543318658E-03      0.7189553332E-03

    ------------------------------------------------
       NWT REQUIRED            4 OUTER ITERATIONS 
       AND A TOTAL OF          7 INNER ITERATIONS.
    ------------------------------------------------

 NO OUTPUT CONTROL FOR STRESS PERIOD   11   TIME STEP   13
 
 SOLVING FOR HEAD 
                                                   Max.-Head-Change                         Max.-Flux-Residual
  Residual-Control   Outer-Iter.   Inner-Iter.     Column Row Layer    Maximum-Head-Change  Column Row Layer    Maximum-Flux-Residual          L2-NORM 
          0                 1           2             4    7     1       0.2310722203E-01       4    7    1         0.1218990018E+01      0.2472653715E+01
          0                 2           2             4    7     1      -0.2247713171E-02       4    7    1        -0.1218997159E+00      0.2472633476E+00
          0                 3           2             4    7     1       0.1530608306E-03       4    7    1         0.8532977037E-02      0.1730820064E-01
          0                 4           1             4    7     1      -0.6090434033E-05       4    7    1        -0.3489992753E-03      0.7078967921E-03

    ------------------------------------------------
       NWT REQUIRED            4 OUTER ITERATIONS 
       AND A TOTAL OF          7 INNER ITERATIONS.
    ------------------------------------------------

 NO OUTPUT CONTROL FOR STRESS PERIOD   11   TIME STEP   14
 
 SOLVING FOR HEAD 
                                                   Max.-Head-Change                         Max.-Flux-Residual
  Residual-Control   Outer-Iter.   Inner-Iter.     Column Row Layer    Maximum-Head-Change  Column Row Layer    Maximum-Flux-Residual          L2-NORM 
          0                 1           2             4    7     1       0.2275907189E-01       4    7    1         0.1200628931E+01      0.2434950871E+01
          0                 2           2             4    7     1      -0.2213847410E-02       4    7    1        -0.1200635906E+00      0.2434934130E+00
          0                 3           2             4    7     1       0.1507547002E-03       4    7    1         0.8404448364E-02      0.1704433068E-01
          0                 4           1             4    7     1      -0.5998671004E-05       4    7    1        -0.3437424432E-03      0.6970968244E-03

    ------------------------------------------------
       NWT REQUIRED            4 OUTER ITERATIONS 
       AND A TOTAL OF          7 INNER ITERATIONS.
    ------------------------------------------------

 NO OUTPUT CONTROL FOR STRESS PERIOD   11   TIME STEP   15
 
 SOLVING FOR HEAD 
                                                   Max.-Head-Change                         Max.-Flux-Residual
  Residual-Control   Outer-Iter.   Inner-Iter.     Column Row Layer    Maximum-Head-Change  Column Row Layer    Maximum-Flux-Residual          L2-NORM 
          0                 1           2             4    7     1       0.2241618753E-01       4    7    1         0.1182540862E+01      0.2398138285E+01
          0                 2           2             4    7     1      -0.2180493866E-02       4    7    1        -0.1182547673E+00      0.2398124214E+00
          0                 3           2             4    7     1       0.1484834499E-03       4    7    1         0.8277830828E-02      0.1678668621E-01
          0                 4           1             4    7     1      -0.5908295838E-05       4    7    1        -0.3385637806E-03      0.6865590805E-03

    ------------------------------------------------
       NWT REQUIRED            4 OUTER ITERATIONS 
       AND A TOTAL OF          7 INNER ITERATIONS.
    ------------------------------------------------

 NO OUTPUT CONTROL FOR STRESS PERIOD   11   TIME STEP   16
 
 SOLVING FOR HEAD 
                                                   Max.-Head-Change                         Max.-Flux-Residual
  Residual-Control   Outer-Iter.   Inner-Iter.     Column Row Layer    Maximum-Head-Change  Column Row Layer    Maximum-Flux-Residual          L2-NORM 
          0                 1           2             4    7     1       0.2207857399E-01       4    7    1         0.1164725814E+01      0.2362227169E+01
          0                 2           2             4    7     1      -0.2147653033E-02       4    7    1        -0.1164732462E+00      0.2362215777E+00
          0                 3           2             4    7     1       0.1462471136E-03       4    7    1         0.8153124463E-02      0.1653534697E-01
          0                 4           1             4    7     1      -0.5819310031E-05       4    7    1        -0.3334632916E-03      0.6762980504E-03

    ------------------------------------------------
       NWT REQUIRED            4 OUTER ITERATIONS 
       AND A TOTAL OF          7 INNER ITERATIONS.
    ------------------------------------------------

 NO OUTPUT CONTROL FOR STRESS PERIOD   11   TIME STEP   17
 
 SOLVING FOR HEAD 
                                                   Max.-Head-Change                         Max.-Flux-Residual
  Residual-Control   Outer-Iter.   Inner-Iter.     Column Row Layer    Maximum-Head-Change  Column Row Layer    Maximum-Flux-Residual          L2-NORM 
          0                 1           2             4    7     1       0.2174621882E-01       4    7    1         0.1147184049E+01      0.2327158963E+01
          0                 2           2             4    7     1      -0.2115323698E-02       4    7    1        -0.1147190535E+00      0.2327149431E+00
          0                 3           2             4    7     1       0.1440456081E-03       4    7    1         0.8030331091E-02      0.1628991335E-01
          0                 4           1             4    7     1      -0.5731709785E-05       4    7    1        -0.3284410168E-03      0.6662559540E-03

    ------------------------------------------------
       NWT REQUIRED            4 OUTER ITERATIONS 
       AND A TOTAL OF          7 INNER ITERATIONS.
    ------------------------------------------------

 NO OUTPUT CONTROL FOR STRESS PERIOD   11   TIME STEP   18
 
 SOLVING FOR HEAD 
                                                   Max.-Head-Change                         Max.-Flux-Residual
  Residual-Control   Outer-Iter.   Inner-Iter.     Column Row Layer    Maximum-Head-Change  Column Row Layer    Maximum-Flux-Residual          L2-NORM 
          0                 1           2             4    7     1       0.2141896796E-01       4    7    1         0.1129907548E+01      0.2292910310E+01
          0                 2           2             4    7     1      -0.2083490876E-02       4    7    1        -0.1129913874E+00      0.2292902729E+00
          0                 3           2             4    7     1       0.1418779129E-03       4    7    1         0.7909394532E-02      0.1605020984E-01
          0                 4           1             4    7     1      -0.5645455266E-05       4    7    1        -0.3234947155E-03      0.6564545987E-03

    ------------------------------------------------
       NWT REQUIRED            4 OUTER ITERATIONS 
       AND A TOTAL OF          7 INNER ITERATIONS.
    ------------------------------------------------

 NO OUTPUT CONTROL FOR STRESS PERIOD   11   TIME STEP   19
 
 SOLVING FOR HEAD 
                                                   Max.-Head-Change                         Max.-Flux-Residual
  Residual-Control   Outer-Iter.   Inner-Iter.     Column Row Layer    Maximum-Head-Change  Column Row Layer    Maximum-Flux-Residual          L2-NORM 
          0                 1           2             4    7     1       0.2109707912E-01       4    7    1         0.1112910444E+01      0.2259468716E+01
          0                 2           2             4    7     1      -0.2052179636E-02       4    7    1        -0.1112916614E+00      0.2259462888E+00
          0                 3           2             4    7     1       0.1397457358E-03       4    7    1         0.7790413814E-02      0.1581614382E-01
          0                 4           1             4    7     1      -0.5560613823E-05       4    7    1        -0.3186283850E-03      0.6468823189E-03

    ------------------------------------------------
       NWT REQUIRED            4 OUTER ITERATIONS 
       AND A TOTAL OF          7 INNER ITERATIONS.
    ------------------------------------------------

 NO OUTPUT CONTROL FOR STRESS PERIOD   11   TIME STEP   20
 
 SOLVING FOR HEAD 
                                                   Max.-Head-Change                         Max.-Flux-Residual
  Residual-Control   Outer-Iter.   Inner-Iter.     Column Row Layer    Maximum-Head-Change  Column Row Layer    Maximum-Flux-Residual          L2-NORM 
          0                 1           2             4    7     1       0.2078050735E-01       4    7    1         0.1096191352E+01      0.2226780039E+01
          0                 2           2             4    7     1      -0.2021385607E-02       4    7    1        -0.1096197368E+00      0.2226775504E+00
          0                 3           2             4    7     1       0.1376487791E-03       4    7    1         0.7673379197E-02      0.1558733500E-01
          0                 4           1             4    7     1      -0.5477174174E-05       4    7    1        -0.3138416737E-03      0.6375068832E-03

    ------------------------------------------------
       NWT REQUIRED            4 OUTER ITERATIONS 
       AND A TOTAL OF          7 INNER ITERATIONS.
    ------------------------------------------------

 NO OUTPUT CONTROL FOR STRESS PERIOD   11   TIME STEP   21
 
 SOLVING FOR HEAD 
                                                   Max.-Head-Change                         Max.-Flux-Residual
  Residual-Control   Outer-Iter.   Inner-Iter.     Column Row Layer    Maximum-Head-Change  Column Row Layer    Maximum-Flux-Residual          L2-NORM 
          0                 1           2             4    7     1       0.2046893943E-01       4    7    1         0.1079733193E+01      0.2194833318E+01
          0                 2           2             4    7     1      -0.1991078318E-02       4    7    1        -0.1079739056E+00      0.2194830029E+00
          0                 3           2             4    7     1       0.1355849671E-03       4    7    1         0.7558171107E-02      0.1536373823E-01
          0                 4           1             4    7     1      -0.5395052850E-05       4    7    1        -0.3091296489E-03      0.6283754678E-03

    ------------------------------------------------
       NWT REQUIRED            4 OUTER ITERATIONS 
       AND A TOTAL OF          7 INNER ITERATIONS.
    ------------------------------------------------

 NO OUTPUT CONTROL FOR STRESS PERIOD   11   TIME STEP   22
 
 SOLVING FOR HEAD 
                                                   Max.-Head-Change                         Max.-Flux-Residual
  Residual-Control   Outer-Iter.   Inner-Iter.     Column Row Layer    Maximum-Head-Change  Column Row Layer    Maximum-Flux-Residual          L2-NORM 
          0                 1           2             4    7     1       0.2016261251E-01       4    7    1         0.1063549225E+01      0.2163608709E+01
          0                 2           2             4    7     1      -0.1961280840E-02       4    7    1        -0.1063554938E+00      0.2163606483E+00
          0                 3           2             4    7     1       0.1335558719E-03       4    7    1         0.7444882384E-02      0.1514518813E-01
          0                 4           1             4    7     1      -0.5314313749E-05       4    7    1        -0.3044961522E-03      0.6194407657E-03

    ------------------------------------------------
       NWT REQUIRED            4 OUTER ITERATIONS 
       AND A TOTAL OF          7 INNER ITERATIONS.
    ------------------------------------------------

 NO OUTPUT CONTROL FOR STRESS PERIOD   11   TIME STEP   23
 
 SOLVING FOR HEAD 
                                                   Max.-Head-Change                         Max.-Flux-Residual
  Residual-Control   Outer-Iter.   Inner-Iter.     Column Row Layer    Maximum-Head-Change  Column Row Layer    Maximum-Flux-Residual          L2-NORM 
          0                 1           2             4    7     1       0.1986134295E-01       4    7    1         0.1047629619E+01      0.2133080721E+01
          0                 2           2             4    7     1      -0.1931975310E-02       4    7    1        -0.1047635185E+00      0.2133079321E+00
          0                 3           1             4    7     1       0.1315602762E-03       4    7    1         0.7333444198E-02      0.1493150329E-01
          0                 4           1             4    7     1      -0.5234907135E-05       4    7    1        -0.2999382939E-03      0.6106961112E-03

    ------------------------------------------------
       NWT REQUIRED            4 OUTER ITERATIONS 
       AND A TOTAL OF          6 INNER ITERATIONS.
    ------------------------------------------------

 NO OUTPUT CONTROL FOR STRESS PERIOD   11   TIME STEP   24
 
 SOLVING FOR HEAD 
                                                   Max.-Head-Change                         Max.-Flux-Residual
  Residual-Control   Outer-Iter.   Inner-Iter.     Column Row Layer    Maximum-Head-Change  Column Row Layer    Maximum-Flux-Residual          L2-NORM 
          0                 1           2             4    7     1       0.1956521304E-01       4    7    1         0.1031979605E+01      0.2103227877E+01
          0                 2           2             4    7     1      -0.1903169731E-02       4    7    1        -0.1031985027E+00      0.2103227208E+00
          0                 3           1             4    7     1       0.1295987255E-03       4    7    1         0.7223893179E-02      0.1472254646E-01
          0                 4           1             4    7     1      -0.5156855687E-05       4    7    1        -0.2954576705E-03      0.6021481951E-03

    ------------------------------------------------
       NWT REQUIRED            4 OUTER ITERATIONS 
       AND A TOTAL OF          6 INNER ITERATIONS.
    ------------------------------------------------

 NO OUTPUT CONTROL FOR STRESS PERIOD   11   TIME STEP   25
 
 SOLVING FOR HEAD 
                                                   Max.-Head-Change                         Max.-Flux-Residual
  Residual-Control   Outer-Iter.   Inner-Iter.     Column Row Layer    Maximum-Head-Change  Column Row Layer    Maximum-Flux-Residual          L2-NORM 
          0                 1           2             4    7     1       0.1927416881E-01       4    7    1         0.1016596074E+01      0.2074031348E+01
          0                 2           2             4    7     1      -0.1874858854E-02       4    7    1        -0.1016601355E+00      0.2074031456E+00
          0                 3           1             4    7     1       0.1276708620E-03       4    7    1         0.7116207569E-02      0.1451818097E-01
          0                 4           1             4    7     1      -0.5080144210E-05       4    7    1        -0.2910533265E-03      0.5937922463E-03

    ------------------------------------------------
       NWT REQUIRED            4 OUTER ITERATIONS 
       AND A TOTAL OF          6 INNER ITERATIONS.
    ------------------------------------------------

 NO OUTPUT CONTROL FOR STRESS PERIOD   11   TIME STEP   26
 
 SOLVING FOR HEAD 
                                                   Max.-Head-Change                         Max.-Flux-Residual
  Residual-Control   Outer-Iter.   Inner-Iter.     Column Row Layer    Maximum-Head-Change  Column Row Layer    Maximum-Flux-Residual          L2-NORM 
          0                 1           2             4    7     1       0.1898800449E-01       4    7    1         0.1001468851E+01      0.2045455262E+01
          0                 2           2             4    7     1      -0.1847022665E-02       4    7    1        -0.1001473994E+00      0.2045455663E+00
          0                 3           1             4    7     1       0.1257753225E-03       4    7    1         0.7010316117E-02      0.1431816659E-01
          0                 4           1             4    7     1      -0.5004718823E-05       4    7    1        -0.2867223454E-03      0.5856366654E-03

    ------------------------------------------------
       NWT REQUIRED            4 OUTER ITERATIONS 
       AND A TOTAL OF          6 INNER ITERATIONS.
    ------------------------------------------------

 NO OUTPUT CONTROL FOR STRESS PERIOD   11   TIME STEP   27
 
 SOLVING FOR HEAD 
                                                   Max.-Head-Change                         Max.-Flux-Residual
  Residual-Control   Outer-Iter.   Inner-Iter.     Column Row Layer    Maximum-Head-Change  Column Row Layer    Maximum-Flux-Residual          L2-NORM 
          0                 1           2             4    7     1       0.1870679863E-01       4    7    1         0.9866020202E+00      0.2017497262E+01
          0                 2           2             4    7     1      -0.1819668803E-02       4    7    1        -0.9866070285E-01      0.2017498251E+00
          0                 3           1             4    7     1       0.1239126279E-03       4    7    1         0.6906247448E-02      0.1412246780E-01
          0                 4           1             4    7     1      -0.4930600250E-05       4    7    1        -0.2824659261E-03      0.5776113830E-03

    ------------------------------------------------
       NWT REQUIRED            4 OUTER ITERATIONS 
       AND A TOTAL OF          6 INNER ITERATIONS.
    ------------------------------------------------

 NO OUTPUT CONTROL FOR STRESS PERIOD   11   TIME STEP   28
 
 SOLVING FOR HEAD 
                                                   Max.-Head-Change                         Max.-Flux-Residual
  Residual-Control   Outer-Iter.   Inner-Iter.     Column Row Layer    Maximum-Head-Change  Column Row Layer    Maximum-Flux-Residual          L2-NORM 
          0                 1           2             4    7     1       0.1843035460E-01       4    7    1         0.9719849014E+00      0.1990138075E+01
          0                 2           2             4    7     1      -0.1792778142E-02       4    7    1        -0.9719897775E-01      0.1990139447E+00
          0                 3           1             4    7     1       0.1220814760E-03       4    7    1         0.6803926779E-02      0.1393095526E-01
          0                 4           1             4    7     1      -0.4857737373E-05       4    7    1        -0.2782810288E-03      0.5697755125E-03

    ------------------------------------------------
       NWT REQUIRED            4 OUTER ITERATIONS 
       AND A TOTAL OF          6 INNER ITERATIONS.
    ------------------------------------------------

 NO OUTPUT CONTROL FOR STRESS PERIOD   11   TIME STEP   29
 
 SOLVING FOR HEAD 
                                                   Max.-Head-Change                         Max.-Flux-Residual
  Residual-Control   Outer-Iter.   Inner-Iter.     Column Row Layer    Maximum-Head-Change  Column Row Layer    Maximum-Flux-Residual          L2-NORM 
          0                 1           2             4    7     1       0.1815887895E-01       4    7    1         0.9576294306E+00      0.1963359836E+01
          0                 2           2             4    7     1      -0.1766370772E-02       4    7    1        -0.9576341773E-01      0.1963361524E+00
          0                 3           1             4    7     1       0.1202832332E-03       4    7    1         0.6703437644E-02      0.1374352001E-01
          0                 4           1             4    7     1      -0.4786183382E-05       4    7    1        -0.2741709839E-03      0.5623320137E-03

    ------------------------------------------------
       NWT REQUIRED            4 OUTER ITERATIONS 
       AND A TOTAL OF          6 INNER ITERATIONS.
    ------------------------------------------------

 NO OUTPUT CONTROL FOR STRESS PERIOD   11   TIME STEP   30



 STREAM LISTING     PERIOD     11   STEP       30

 LAYER ROW COL. STREAM  RCH.  FLOW INTO     FLOW TO   FLOW OUT OF   OVRLND.     DIRECT     STREAM       STREAM     STREAM     STREAM   STREAMBED  STREAMBED
                SEG.NO.  NO.  STRM. RCH.    AQUIFER    STRM. RCH.    RUNOFF     PRECIP       ET          HEAD       DEPTH      WIDTH   CONDCTNC.   GRADIENT

   1    1    1     1     1    2.6250E+01  2.5084E-01   2.5999E+01  0.000E+00  0.000E+00  0.000E+00  1.09424E+03  1.197E+00  1.328E+01  5.977E-02  1.399E+00
   1    2    2     1     2    2.5999E+01  3.8795E-01   2.5611E+01  0.000E+00  0.000E+00  0.000E+00  1.08925E+03  1.192E+00  1.322E+01  9.255E-02  1.397E+00
   1    3    3     1     3    2.5611E+01  3.3035E-01   2.5281E+01  0.000E+00  0.000E+00  0.000E+00  1.08361E+03  1.187E+00  1.315E+01  7.890E-02  1.396E+00
   1    3    4     1     4    2.5281E+01  3.0378E-01   2.4977E+01  0.000E+00  0.000E+00  0.000E+00  1.07859E+03  1.182E+00  1.309E+01  7.264E-02  1.394E+00
   1    4    5     2     1    2.2977E+01  3.2316E-01   2.2654E+01  0.000E+00  0.000E+00  0.000E+00  1.07308E+03  1.143E+00  1.200E+01  7.800E-02  1.381E+00
   1    5    6     2     2    2.2654E+01  2.4807E-01   2.2406E+01  0.000E+00  0.000E+00  0.000E+00  1.06764E+03  1.134E+00  1.200E+01  6.000E-02  1.378E+00
   1    6    6     2     3    2.2406E+01  2.4762E-01   2.2158E+01  0.000E+00  0.000E+00  0.000E+00  1.06292E+03  1.127E+00  1.200E+01  6.000E-02  1.376E+00
   1    7    6     2     4    2.2158E+01  2.4717E-01   2.1911E+01  0.000E+00  0.000E+00  0.000E+00  1.05819E+03  1.119E+00  1.200E+01  6.000E-02  1.373E+00
   1    8    6     2     5    2.1911E+01  2.4671E-01   2.1664E+01  0.000E+00  0.000E+00  0.000E+00  1.05347E+03  1.112E+00  1.200E+01  6.000E-02  1.371E+00
   1    3    5     3     1    2.0000E+00  2.8252E-01   1.7175E+00  0.000E+00  0.000E+00  0.000E+00  1.07555E+03  1.909E+00  9.636E+00  7.227E-02  1.955E+00
   1    3    6     3     2    1.7175E+00  2.4905E-01   1.4684E+00  0.000E+00  0.000E+00  0.000E+00  1.07264E+03  1.727E+00  8.909E+00  6.682E-02  1.864E+00
   1    3    7     3     3    1.4684E+00  1.9718E-01   1.2712E+00  0.000E+00  0.000E+00  0.000E+00  1.06987E+03  1.555E+00  8.218E+00  5.547E-02  1.777E+00
   1    4    8     3     4    1.2712E+00  2.2567E-01   1.0456E+00  0.000E+00  0.000E+00  0.000E+00  1.06682E+03  1.364E+00  7.455E+00  6.709E-02  1.682E+00
   1    5    8     3     5    1.0456E+00  1.5790E-01   8.8768E-01  0.000E+00  0.000E+00  0.000E+00  1.06362E+03  1.164E+00  6.655E+00  4.991E-02  1.582E+00
   1    6    8     3     6    8.8768E-01  5.5980E-02   8.3170E-01  0.000E+00  0.000E+00  0.000E+00  1.06158E+03  1.036E+00  6.145E+00  1.844E-02  1.518E+00
   1    5   10     4     1    1.0000E+01  9.0919E-02   9.9091E+00  0.000E+00  0.000E+00  0.000E+00  1.07836E+03  6.368E-01  1.000E+01  2.500E-02  1.212E+00
   1    5    9     4     2    9.9091E+00  1.8158E-01   9.7275E+00  0.000E+00  0.000E+00  0.000E+00  1.07154E+03  6.315E-01  1.000E+01  5.000E-02  1.211E+00
   1    6    8     4     3    9.7275E+00  1.2689E-01   9.6006E+00  0.000E+00  0.000E+00  0.000E+00  1.06381E+03  6.256E-01  1.000E+01  3.500E-02  1.209E+00
   1    6    8     5     1    1.0432E+01  2.2686E-01   1.0205E+01  0.000E+00  0.000E+00  0.000E+00  1.05868E+03  6.790E-01  1.542E+01  6.166E-02  1.226E+00
   1    7    7     5     2    1.0205E+01  2.7894E-01   9.9265E+00  0.000E+00  0.000E+00  0.000E+00  1.05417E+03  6.732E-01  1.519E+01  7.594E-02  1.224E+00
   1    8    7     5     3    9.9265E+00  1.9221E-01   9.7343E+00  0.000E+00  0.000E+00  0.000E+00  1.04992E+03  6.676E-01  1.497E+01  5.241E-02  1.223E+00
   1    8    6     5     4    9.7343E+00  1.3577E-01   9.5985E+00  0.000E+00  0.000E+00  0.000E+00  1.04691E+03  6.637E-01  1.482E+01  3.706E-02  1.221E+00
   1    9    6     6     1    3.1263E+01  2.6357E-01   3.0999E+01  0.000E+00  0.000E+00  0.000E+00  1.04412E+03  1.393E+00  1.200E+01  6.000E-02  1.464E+00
   1   10    7     6     2    3.0999E+01  2.6314E-01   3.0736E+01  0.000E+00  0.000E+00  0.000E+00  1.03957E+03  1.386E+00  1.200E+01  6.000E-02  1.462E+00
   1   11    7     6     3    3.0736E+01  2.6272E-01   3.0473E+01  0.000E+00  0.000E+00  0.000E+00  1.03502E+03  1.379E+00  1.200E+01  6.000E-02  1.460E+00
   1   12    7     6     4    3.0473E+01  2.6229E-01   3.0211E+01  0.000E+00  0.000E+00  0.000E+00  1.03046E+03  1.372E+00  1.200E+01  6.000E-02  1.457E+00
   1   13    7     6     5    3.0211E+01  3.4395E-03   3.0208E+01  0.000E+00  0.000E+00  0.000E+00  1.02728E+03  1.368E+00  1.200E+01  2.400E-02  4.777E-02
   1   14    9     7     1    1.5000E+02  1.3358E+00   1.4866E+02  0.000E+00  0.000E+00  0.000E+00  1.03987E+03  2.288E+00  5.529E+01  5.593E-01  7.961E-01
   1   13    8     7     2    1.4866E+02  1.8219E+00   1.4684E+02  0.000E+00  0.000E+00  0.000E+00  1.03478E+03  2.279E+00  5.526E+01  6.148E-01  9.878E-01
   1   13    7     7     3    1.4684E+02  1.4276E+00   1.4541E+02  0.000E+00  0.000E+00  0.000E+00  1.02969E+03  2.271E+00  5.522E+01  5.585E-01  8.521E-01
   1   13    6     8     1    1.7562E+02  8.9550E-01   1.7473E+02  0.000E+00  0.000E+00  0.000E+00  1.02486E+03  2.986E+00  4.329E+01  4.412E-01  6.766E-01
   1   13    5     8     2    1.7473E+02  1.3827E-01   1.7459E+02  0.000E+00  0.000E+00  0.000E+00  1.01861E+03  2.982E+00  4.324E+01  4.407E-01  1.046E-01
   1   13    4     8     3    1.7459E+02 -2.5870E+00   1.7718E+02  0.000E+00  0.000E+00  0.000E+00  1.01237E+03  2.990E+00  4.336E+01  4.418E+00 -1.952E-01
   1   13    3     8     4    1.7718E+02 -3.7157E+00   1.8089E+02  0.000E+00  0.000E+00  0.000E+00  1.00614E+03  3.010E+00  4.365E+01  4.448E+00 -2.785E-01
   1   13    2     8     5    1.8089E+02 -2.5747E+00   1.8347E+02  0.000E+00  0.000E+00  0.000E+00  9.99905E+02  3.030E+00  4.393E+01  4.477E+00 -1.917E-01
   1   13    1     8     6    1.8347E+02 -1.9641E+00   1.8543E+02  0.000E+00  0.000E+00  0.000E+00  9.94919E+02  3.044E+00  4.414E+01  2.699E+00 -2.426E-01
   1    8    6     9     1    0.0000E+00  0.0000E+00   0.0000E+00  0.000E+00  0.000E+00  0.000E+00  1.07875E+03  0.000E+00  4.000E+00  0.000E+00  1.000E+00
   1    8    5     9     2    0.0000E+00  0.0000E+00   0.0000E+00  0.000E+00  0.000E+00  0.000E+00  1.07825E+03  0.000E+00  4.000E+00  0.000E+00  1.000E+00





UNSATURATED ZONE PACKAGE VOLUMETRIC BUDGET FOR  TIME STEP    30 STRESS PERIOD   11
  ------------------------------------------------------------------------------



     CUMULATIVE VOLUMES      L**3       RATES FOR THIS TIME STEP      L**3/T
     ------------------                 ------------------------

           IN:                                      IN:
           ---                                      ---
        INFILTRATION =   513951744.7496          INFILTRATION =           0.8475

          OUT:                                     OUT:
          ----                                     ----
              UZF ET =   426582511.8989                UZF ET =           0.8475
        UZF RECHARGE =       73224.0000          UZF RECHARGE =       0.0000E+00

            IN - OUT =    87296008.8508              IN - OUT =       0.0000E+00

          STORAGE:                                 STORAGE:
          --------                                 --------
      STORAGE CHANGE =    87295973.3516        STORAGE CHANGE =       2.1260E-13

 PERCENT DISCREPANCY IS DIFFERENCE BETWEEN IN-OUT MINUS CHANGE IN STORAGE
 DIVIDED BY THE AVERAGE OF IN AND OUT TIMES 100

 PERCENT DISCREPANCY =           0.00     PERCENT DISCREPANCY =           0.00






1
  VOLUMETRIC BUDGET FOR AGRICULTURAL FIELDS AT  END OF TIME STEP   30, STRESS PERIOD  11
  ------------------------------------------------------------------------------

     CUMULATIVE VOLUMES      L**3       RATES FOR THIS TIME STEP      L**3/T
     ------------------                 ------------------------

           IN:                                      IN:
           ---                                      ---
               AG WELLS  =   151827360.0000                 AG WELLS  =           0.0000
      DIVERSION SEGMENTS =   339757888.0000        DIVERSION SEGMENTS =           0.0000
           GW IRRIGATION =           0.0000             GW IRRIGATION =           0.0000
           SW IRRIGATION =           0.0000             SW IRRIGATION =           0.0000
        SYSTEM LOSSES GW =           0.0000          SYSTEM LOSSES GW =           0.0000
        SYSTEM LOSSES SW =           0.0000          SYSTEM LOSSES SW =           0.0000

                TOTAL IN =   491585248.0000                  TOTAL IN =           0.0000

          OUT:                                     OUT:
          ----                                     ----
               AG WELLS  =           0.0000                 AG WELLS  =           0.0000
      DIVERSION SEGMENTS =           0.0000        DIVERSION SEGMENTS =           0.0000
           GW IRRIGATION =   151827360.0000             GW IRRIGATION =           0.0000
           SW IRRIGATION =   339764480.0000             SW IRRIGATION =           0.0000
        SYSTEM LOSSES GW =           0.0000          SYSTEM LOSSES GW =           0.0000
        SYSTEM LOSSES SW =           0.0000          SYSTEM LOSSES SW =           0.0000

               TOTAL OUT =   491591840.0000                 TOTAL OUT =           0.0000

                IN - OUT =       -6592.0000                  IN - OUT =           0.0000

     PERCENT DISCREPANCY =          -0.00         PERCENT DISCREPANCY =           0.00



1
  VOLUMETRIC BUDGET FOR ENTIRE MODEL AT END OF TIME STEP   30, STRESS PERIOD  11
  ------------------------------------------------------------------------------

     CUMULATIVE VOLUMES      L**3       RATES FOR THIS TIME STEP      L**3/T
     ------------------                 ------------------------

           IN:                                      IN:
           ---                                      ---
             STORAGE     =   228383024.0000               STORAGE     =           4.7073
       CONSTANT HEAD     =           0.0000         CONSTANT HEAD     =           0.0000
     HEAD DEP BOUNDS     =     7539531.5000       HEAD DEP BOUNDS     =           0.2858
      STREAM LEAKAGE     =   319683712.0000        STREAM LEAKAGE     =          11.6613
        UZF RECHARGE     =       73223.9531          UZF RECHARGE     =           0.0000
               GW ET     =           0.0000                 GW ET     =           0.0000
     SURFACE LEAKAGE     =           0.0000       SURFACE LEAKAGE     =           0.0000
           AG WELLS      =           0.0000             AG WELLS      =           0.0000

                TOTAL IN =   555679488.0000                  TOTAL IN =          16.6544

          OUT:                                     OUT:
          ----                                     ----
             STORAGE     =   110005112.0000               STORAGE     =           5.5223
       CONSTANT HEAD     =           0.0000         CONSTANT HEAD     =           0.0000
     HEAD DEP BOUNDS     =     7680250.0000       HEAD DEP BOUNDS     =           0.2906
      STREAM LEAKAGE     =   284618784.0000        STREAM LEAKAGE     =          10.8415
        UZF RECHARGE     =           0.0000          UZF RECHARGE     =           0.0000
               GW ET     =     1552216.2500                 GW ET     =           0.0000
     SURFACE LEAKAGE     =           0.0000       SURFACE LEAKAGE     =           0.0000
           AG WELLS      =   151827360.0000             AG WELLS      =           0.0000

               TOTAL OUT =   555683712.0000                 TOTAL OUT =          16.6544

                IN - OUT =       -4224.0000                  IN - OUT =       7.6294E-06

     PERCENT DISCREPANCY =          -0.00         PERCENT DISCREPANCY =           0.00






         TIME SUMMARY AT END OF TIME STEP   30 IN STRESS PERIOD   11
                    SECONDS     MINUTES      HOURS       DAYS        YEARS
                    -----------------------------------------------------------
   TIME STEP LENGTH  87667.      1461.1      24.352      1.0147     2.77799E-03
 STRESS PERIOD TIME 2.63000E+06  43833.      730.56      30.440     8.33397E-02
         TOTAL TIME 2.63864E+07 4.39773E+05  7329.5      305.40     0.83613    
1
1
                            STRESS PERIOD NO.   12, LENGTH =   2630000.    
                            -----------------------------------------------

                              NUMBER OF TIME STEPS =    30

                               MULTIPLIER FOR DELT =     1.000

                            INITIAL TIME STEP SIZE =   87666.66    

 REUSING NON-PARAMETER GHB CELLS FROM LAST STRESS PERIOD

      2 GHB CELLS

 REUSING STREAM SEGMENT DATA FROM LAST STRESS PERIOD



            AREAL INFILTRATION RATE
 READING ON UNIT   19 WITH FORMAT: (FREE)              

            1           2           3           4           5           6           7           8           9          10
 ........................................................................................................................
   1   1.0000E-10  2.0000E-10   0.000       0.000       0.000       0.000       0.000       0.000       0.000       0.000    
   2   2.0000E-10  1.0000E-10  2.0000E-10   0.000       0.000      8.0000E-10  8.0000E-10  5.0000E-10   0.000       0.000    
   3    0.000      5.0000E-10  1.0000E-10  1.0000E-10  8.0000E-10  8.0000E-10  5.0000E-10  5.0000E-10   0.000       0.000    
   4   8.0000E-10  5.0000E-10  1.0000E-10  1.0000E-10  1.0000E-10  1.0000E-10  1.0000E-10  1.0000E-10  2.0000E-10   0.000    
   5   8.0000E-10  5.0000E-10  1.0000E-10  1.0000E-10  1.0000E-10  1.0000E-10  1.0000E-10  1.0000E-10  1.0000E-10  1.0000E-10
   6   8.0000E-10  5.0000E-10  5.0000E-10  2.0000E-10  2.0000E-10  1.0000E-10  1.0000E-10  1.0000E-10  1.0000E-10  5.0000E-10
   7   8.0000E-10  5.0000E-10  5.0000E-10  2.0000E-10  2.0000E-10  1.0000E-10  1.0000E-10  2.0000E-10  2.0000E-10   0.000    
   8    0.000      5.0000E-10  5.0000E-10  2.0000E-10  2.0000E-10  1.0000E-10  1.0000E-10  2.0000E-10  5.0000E-10   0.000    
   9    0.000      5.0000E-10  5.0000E-10  2.0000E-10  2.0000E-10  1.0000E-10  1.0000E-10  2.0000E-10  5.0000E-10   0.000    
  10    0.000      5.0000E-10  5.0000E-10  2.0000E-10  2.0000E-10  1.0000E-10  1.0000E-10  2.0000E-10  5.0000E-10  8.0000E-10
  11    0.000      1.0000E-10  1.0000E-10  1.0000E-10  1.0000E-10  1.0000E-10  1.0000E-10  2.0000E-10  5.0000E-10   0.000    
  12   1.0000E-10  1.0000E-10  1.0000E-10  1.0000E-10  1.0000E-10  1.0000E-10  1.0000E-10  1.0000E-10  2.0000E-10   0.000    
  13   1.0000E-10  1.0000E-10  2.0000E-10  2.0000E-10  2.0000E-10  2.0000E-10  2.0000E-10  1.0000E-10  1.0000E-10   0.000    
  14    0.000      2.0000E-10  5.0000E-10  5.0000E-10  5.0000E-10  5.0000E-10  5.0000E-10  2.0000E-10  1.0000E-10   0.000    
  15    0.000       0.000      8.0000E-10  8.0000E-10  8.0000E-10  8.0000E-10   0.000       0.000       0.000       0.000    

                  ET RATE =  5.000000E-10

 USING ET EXTINCTION DEPTH FROM PREVIOUS STRESS PERIOD. CURRENT PERIOD IS:      12

 USING EXTINCTION WATER CONTENT FROM PREVIOUS STRESS PERIOD. CURRENT PERIOD IS:      12

 USING AIR ENTRY PRESSURE FROM PREVIOUS STRESS PERIOD. CURRENT PERIOD IS:      12

 USING ROOT PRESSURE HEAD FROM PREVIOUS STRESS PERIOD. CURRENT PERIOD IS:      12

 USING ROOT ACTIVITY FROM PREVIOUS STRESS PERIOD. CURRENT PERIOD IS:      12

 PROCESSING AG STRESS PERIOD DATA

 READING AG STRESS PERIOD DATA

 READING IRRIGATION SEGMENT

 READING IRRIGATION WELL

 READING SUPPLEMENTAL WELL

 END PROCESSING AG STRESS PERIOD DATA OPTIONS
 
 SOLVING FOR HEAD 
                                                   Max.-Head-Change                         Max.-Flux-Residual
  Residual-Control   Outer-Iter.   Inner-Iter.     Column Row Layer    Maximum-Head-Change  Column Row Layer    Maximum-Flux-Residual          L2-NORM 
          0                 1           2             4    7     1       0.1789197541E-01       4    7    1         0.9435168079E+00      0.1951818539E+01
          0                 2           2             4    7     1      -0.1740408667E-02       4    7    1        -0.9435214289E-01      0.1951875734E+00
          0                 3           1             4    7     1       0.1185153122E-03       4    7    1         0.6604648499E-02      0.1365823693E-01
          0                 4           1             4    7     1      -0.4715835928E-05       4    7    1        -0.2701305161E-03      0.5583585671E-03

    ------------------------------------------------
       NWT REQUIRED            4 OUTER ITERATIONS 
       AND A TOTAL OF          6 INNER ITERATIONS.
    ------------------------------------------------

 NO OUTPUT CONTROL FOR STRESS PERIOD   12   TIME STEP    1
 
 SOLVING FOR HEAD 
                                                   Max.-Head-Change                         Max.-Flux-Residual
  Residual-Control   Outer-Iter.   Inner-Iter.     Column Row Layer    Maximum-Head-Change  Column Row Layer    Maximum-Flux-Residual          L2-NORM 
          0                 1           2             4    7     1       0.1762983962E-01       4    7    1         0.9296559705E+00      0.1930016051E+01
          0                 2           2             4    7     1      -0.1714909303E-02       4    7    1        -0.9296604692E-01      0.1929328397E+00
          0                 3           1             4    7     1       0.1167789016E-03       4    7    1         0.6507621836E-02      0.1349884891E-01
          0                 4           1             4    7     1      -0.4646742674E-05       4    7    1        -0.2661621229E-03      0.5516074842E-03

    ------------------------------------------------
       NWT REQUIRED            4 OUTER ITERATIONS 
       AND A TOTAL OF          6 INNER ITERATIONS.
    ------------------------------------------------

 NO OUTPUT CONTROL FOR STRESS PERIOD   12   TIME STEP    2
 
 SOLVING FOR HEAD 
                                                   Max.-Head-Change                         Max.-Flux-Residual
  Residual-Control   Outer-Iter.   Inner-Iter.     Column Row Layer    Maximum-Head-Change  Column Row Layer    Maximum-Flux-Residual          L2-NORM 
          0                 1           2             4    7     1       0.1737212801E-01       4    7    1         0.9160276330E+00      0.1902947188E+01
          0                 2           2             4    7     1      -0.1689840814E-02       4    7    1        -0.9160320118E-01      0.1902350553E+00
          0                 3           1             4    7     1       0.1150718323E-03       4    7    1         0.6412222708E-02      0.1331096342E-01
          0                 4           1             4    7     1      -0.4578817045E-05       4    7    1        -0.2622602951E-03      0.5441260749E-03

    ------------------------------------------------
       NWT REQUIRED            4 OUTER ITERATIONS 
       AND A TOTAL OF          6 INNER ITERATIONS.
    ------------------------------------------------

 NO OUTPUT CONTROL FOR STRESS PERIOD   12   TIME STEP    3
 
 SOLVING FOR HEAD 
                                                   Max.-Head-Change                         Max.-Flux-Residual
  Residual-Control   Outer-Iter.   Inner-Iter.     Column Row Layer    Maximum-Head-Change  Column Row Layer    Maximum-Flux-Residual          L2-NORM 
          0                 1           2             4    7     1       0.1711904939E-01       4    7    1         0.9026434117E+00      0.1876652733E+01
          0                 2           2             4    7     1      -0.1665222992E-02       4    7    1        -0.9026476738E-01      0.1876133858E+00
          0                 3           1             4    7     1       0.1133954514E-03       4    7    1         0.6318532402E-02      0.1312833157E-01
          0                 4           1             4    7     1      -0.4512111998E-05       4    7    1        -0.2584283513E-03      0.5366789850E-03

    ------------------------------------------------
       NWT REQUIRED            4 OUTER ITERATIONS 
       AND A TOTAL OF          6 INNER ITERATIONS.
    ------------------------------------------------

 NO OUTPUT CONTROL FOR STRESS PERIOD   12   TIME STEP    4
 
 SOLVING FOR HEAD 
                                                   Max.-Head-Change                         Max.-Flux-Residual
  Residual-Control   Outer-Iter.   Inner-Iter.     Column Row Layer    Maximum-Head-Change  Column Row Layer    Maximum-Flux-Residual          L2-NORM 
          0                 1           2             4    7     1       0.1687039395E-01       4    7    1         0.8894920258E+00      0.1851086777E+01
          0                 2           2             4    7     1      -0.1641035430E-02       4    7    1        -0.8894961740E-01      0.1850632655E+00
          0                 3           1             4    7     1       0.1117483702E-03       4    7    1         0.6226471991E-02      0.1294997444E-01
          0                 4           1             4    7     1      -0.4446573424E-05       4    7    1        -0.2546630801E-03      0.5292355991E-03

    ------------------------------------------------
       NWT REQUIRED            4 OUTER ITERATIONS 
       AND A TOTAL OF          6 INNER ITERATIONS.
    ------------------------------------------------

 NO OUTPUT CONTROL FOR STRESS PERIOD   12   TIME STEP    5
 
 SOLVING FOR HEAD 
                                                   Max.-Head-Change                         Max.-Flux-Residual
  Residual-Control   Outer-Iter.   Inner-Iter.     Column Row Layer    Maximum-Head-Change  Column Row Layer    Maximum-Flux-Residual          L2-NORM 
          0                 1           2             4    7     1       0.1662608499E-01       4    7    1         0.8765699751E+00      0.1826177232E+01
          0                 2           2             4    7     1      -0.1617270666E-02       4    7    1        -0.8765740124E-01      0.1825780796E+00
          0                 3           1             4    7     1       0.1101300793E-03       4    7    1         0.6136016922E-02      0.1277680463E-01
          0                 4           1             4    7     1      -0.4382180140E-05       4    7    1        -0.2509634567E-03      0.5223007021E-03

    ------------------------------------------------
       NWT REQUIRED            4 OUTER ITERATIONS 
       AND A TOTAL OF          6 INNER ITERATIONS.
    ------------------------------------------------

 NO OUTPUT CONTROL FOR STRESS PERIOD   12   TIME STEP    6
 
 SOLVING FOR HEAD 
                                                   Max.-Head-Change                         Max.-Flux-Residual
  Residual-Control   Outer-Iter.   Inner-Iter.     Column Row Layer    Maximum-Head-Change  Column Row Layer    Maximum-Flux-Residual          L2-NORM 
          0                 1           2             4    7     1       0.1638618001E-01       4    7    1         0.8638806627E+00      0.1801883341E+01
          0                 2           2             4    7     1      -0.1593934293E-02       4    7    1        -0.8638845918E-01      0.1801538231E+00
          0                 3           1             4    7     1       0.1085409604E-03       4    7    1         0.6047191027E-02      0.1260768053E-01
          0                 4           1             4    7     1      -0.4318947571E-05       4    7    1        -0.2473304830E-03      0.5154083190E-03

    ------------------------------------------------
       NWT REQUIRED            4 OUTER ITERATIONS 
       AND A TOTAL OF          6 INNER ITERATIONS.
    ------------------------------------------------

 NO OUTPUT CONTROL FOR STRESS PERIOD   12   TIME STEP    7
 
 SOLVING FOR HEAD 
                                                   Max.-Head-Change                         Max.-Flux-Residual
  Residual-Control   Outer-Iter.   Inner-Iter.     Column Row Layer    Maximum-Head-Change  Column Row Layer    Maximum-Flux-Residual          L2-NORM 
          0                 1           2             4    7     1       0.1615047883E-01       4    7    1         0.8514123114E+00      0.1778209323E+01
          0                 2           2             4    7     1      -0.1571006840E-02       4    7    1        -0.8514161350E-01      0.1777906288E+00
          0                 3           1             4    7     1       0.1069796874E-03       4    7    1         0.5959911905E-02      0.1244253401E-01
          0                 4           1             4    7     1      -0.4256823222E-05       4    7    1        -0.2437607550E-03      0.5086986346E-03

    ------------------------------------------------
       NWT REQUIRED            4 OUTER ITERATIONS 
       AND A TOTAL OF          6 INNER ITERATIONS.
    ------------------------------------------------

 NO OUTPUT CONTROL FOR STRESS PERIOD   12   TIME STEP    8
 
 SOLVING FOR HEAD 
                                                   Max.-Head-Change                         Max.-Flux-Residual
  Residual-Control   Outer-Iter.   Inner-Iter.     Column Row Layer    Maximum-Head-Change  Column Row Layer    Maximum-Flux-Residual          L2-NORM 
          0                 1           2             4    7     1       0.1591889801E-01       4    7    1         0.8391619209E+00      0.1755072043E+01
          0                 2           2             4    7     1      -0.1548480189E-02       4    7    1        -0.8391656419E-01      0.1754806803E+00
          0                 3           1             4    7     1       0.1054457076E-03       4    7    1         0.5874158510E-02      0.1228127872E-01
          0                 4           1             4    7     1      -0.4195784640E-05       4    7    1        -0.2402534387E-03      0.5021757144E-03

    ------------------------------------------------
       NWT REQUIRED            4 OUTER ITERATIONS 
       AND A TOTAL OF          6 INNER ITERATIONS.
    ------------------------------------------------

 NO OUTPUT CONTROL FOR STRESS PERIOD   12   TIME STEP    9
 
 SOLVING FOR HEAD 
                                                   Max.-Head-Change                         Max.-Flux-Residual
  Residual-Control   Outer-Iter.   Inner-Iter.     Column Row Layer    Maximum-Head-Change  Column Row Layer    Maximum-Flux-Residual          L2-NORM 
          0                 1           2             4    7     1       0.1569164372E-01       4    7    1         0.8271399252E+00      0.1732480962E+01
          0                 2           2             4    7     1      -0.1526374396E-02       4    7    1        -0.8271435462E-01      0.1732248576E+00
          0                 3           1             4    7     1       0.1039403865E-03       4    7    1         0.5790003907E-02      0.1212361750E-01
          0                 4           1             4    7     1      -0.4135886283E-05       4    7    1        -0.2368115022E-03      0.4957399325E-03

    ------------------------------------------------
       NWT REQUIRED            4 OUTER ITERATIONS 
       AND A TOTAL OF          6 INNER ITERATIONS.
    ------------------------------------------------

 NO OUTPUT CONTROL FOR STRESS PERIOD   12   TIME STEP   10
 
 SOLVING FOR HEAD 
                                                   Max.-Head-Change                         Max.-Flux-Residual
  Residual-Control   Outer-Iter.   Inner-Iter.     Column Row Layer    Maximum-Head-Change  Column Row Layer    Maximum-Flux-Residual          L2-NORM 
          0                 1           2             4    7     1       0.1546835530E-01       4    7    1         0.8153274944E+00      0.1710392034E+01
          0                 2           2             4    7     1      -0.1504654378E-02       4    7    1        -0.8153310183E-01      0.1710186904E+00
          0                 3           1             4    7     1       0.1024613350E-03       4    7    1         0.5707316262E-02      0.1196942687E-01
          0                 4           1             4    7     1      -0.4077033744E-05       4    7    1        -0.2334295718E-03      0.4894401035E-03

    ------------------------------------------------
       NWT REQUIRED            4 OUTER ITERATIONS 
       AND A TOTAL OF          6 INNER ITERATIONS.
    ------------------------------------------------

 NO OUTPUT CONTROL FOR STRESS PERIOD   12   TIME STEP   11
 
 SOLVING FOR HEAD 
                                                   Max.-Head-Change                         Max.-Flux-Residual
  Residual-Control   Outer-Iter.   Inner-Iter.     Column Row Layer    Maximum-Head-Change  Column Row Layer    Maximum-Flux-Residual          L2-NORM 
          0                 1           2             4    7     1       0.1524896572E-01       4    7    1         0.8037206878E+00      0.1688791106E+01
          0                 2           2             4    7     1      -0.1483313614E-02       4    7    1        -0.8037241169E-01      0.1688610914E+00
          0                 3           1             4    7     1       0.1010081095E-03       4    7    1         0.5626068006E-02      0.1181869484E-01
          0                 4           1             4    7     1      -0.4019208374E-05       4    7    1        -0.2301065217E-03      0.4833114442E-03

    ------------------------------------------------
       NWT REQUIRED            4 OUTER ITERATIONS 
       AND A TOTAL OF          6 INNER ITERATIONS.
    ------------------------------------------------

 NO OUTPUT CONTROL FOR STRESS PERIOD   12   TIME STEP   12
 
 SOLVING FOR HEAD 
                                                   Max.-Head-Change                         Max.-Flux-Residual
  Residual-Control   Outer-Iter.   Inner-Iter.     Column Row Layer    Maximum-Head-Change  Column Row Layer    Maximum-Flux-Residual          L2-NORM 
          0                 1           2             4    7     1       0.1503340751E-01       4    7    1         0.7923160304E+00      0.1667654832E+01
          0                 2           2             4    7     1      -0.1462345541E-02       4    7    1        -0.7923193669E-01      0.1667495667E+00
          0                 3           1             4    7     1       0.9958026299E-04       4    7    1         0.5546234817E-02      0.1167094670E-01

    ------------------------------------------------
       NWT REQUIRED            3 OUTER ITERATIONS 
       AND A TOTAL OF          5 INNER ITERATIONS.
    ------------------------------------------------

 NO OUTPUT CONTROL FOR STRESS PERIOD   12   TIME STEP   13
 
 SOLVING FOR HEAD 
                                                   Max.-Head-Change                         Max.-Flux-Residual
  Residual-Control   Outer-Iter.   Inner-Iter.     Column Row Layer    Maximum-Head-Change  Column Row Layer    Maximum-Flux-Residual          L2-NORM 
          0                 1           2             4    7     1       0.1482180473E-01       4    7    1         0.7811210624E+00      0.1646949700E+01
          0                 2           2             4    7     1      -0.1441762229E-02       4    7    1        -0.7811243094E-01      0.1646808377E+00
          0                 3           1             4    7     1       0.9817861713E-04       4    7    1         0.5467869471E-02      0.1152631505E-01

    ------------------------------------------------
       NWT REQUIRED            3 OUTER ITERATIONS 
       AND A TOTAL OF          5 INNER ITERATIONS.
    ------------------------------------------------

 NO OUTPUT CONTROL FOR STRESS PERIOD   12   TIME STEP   14
 
 SOLVING FOR HEAD 
                                                   Max.-Head-Change                         Max.-Flux-Residual
  Residual-Control   Outer-Iter.   Inner-Iter.     Column Row Layer    Maximum-Head-Change  Column Row Layer    Maximum-Flux-Residual          L2-NORM 
          0                 1           2             4    7     1       0.1461414661E-01       4    7    1         0.7701349677E+00      0.1626673985E+01
          0                 2           2             4    7     1      -0.1421562628E-02       4    7    1        -0.7701381275E-01      0.1626549285E+00
          0                 3           1             4    7     1       0.9680310047E-04       4    7    1         0.5390966245E-02      0.1138468412E-01

    ------------------------------------------------
       NWT REQUIRED            3 OUTER ITERATIONS 
       AND A TOTAL OF          5 INNER ITERATIONS.
    ------------------------------------------------

 NO OUTPUT CONTROL FOR STRESS PERIOD   12   TIME STEP   15
 
 SOLVING FOR HEAD 
                                                   Max.-Head-Change                         Max.-Flux-Residual
  Residual-Control   Outer-Iter.   Inner-Iter.     Column Row Layer    Maximum-Head-Change  Column Row Layer    Maximum-Flux-Residual          L2-NORM 
          0                 1           2             4    7     1       0.1441008583E-01       4    7    1         0.7593386350E+00      0.1606812495E+01
          0                 2           2             4    7     1      -0.1401712952E-02       4    7    1        -0.7593417099E-01      0.1606701657E+00
          0                 3           1             4    7     1       0.9545141185E-04       4    7    1         0.5315391364E-02      0.1124586580E-01

    ------------------------------------------------
       NWT REQUIRED            3 OUTER ITERATIONS 
       AND A TOTAL OF          5 INNER ITERATIONS.
    ------------------------------------------------

 NO OUTPUT CONTROL FOR STRESS PERIOD   12   TIME STEP   16
 
 SOLVING FOR HEAD 
                                                   Max.-Head-Change                         Max.-Flux-Residual
  Residual-Control   Outer-Iter.   Inner-Iter.     Column Row Layer    Maximum-Head-Change  Column Row Layer    Maximum-Flux-Residual          L2-NORM 
          0                 1           2             4    7     1       0.1420955322E-01       4    7    1         0.7487288174E+00      0.1587347936E+01
          0                 2           2             4    7     1      -0.1382206475E-02       4    7    1        -0.7487318097E-01      0.1587249031E+00
          0                 3           1             4    7     1       0.9412309447E-04       4    7    1         0.5241122089E-02      0.1110981764E-01

    ------------------------------------------------
       NWT REQUIRED            3 OUTER ITERATIONS 
       AND A TOTAL OF          5 INNER ITERATIONS.
    ------------------------------------------------

 NO OUTPUT CONTROL FOR STRESS PERIOD   12   TIME STEP   17
 
 SOLVING FOR HEAD 
                                                   Max.-Head-Change                         Max.-Flux-Residual
  Residual-Control   Outer-Iter.   Inner-Iter.     Column Row Layer    Maximum-Head-Change  Column Row Layer    Maximum-Flux-Residual          L2-NORM 
          0                 1           2             4    7     1       0.1401275320E-01       4    7    1         0.7383166935E+00      0.1568265531E+01
          0                 2           2             4    7     1      -0.1363063081E-02       4    7    1        -0.7383196057E-01      0.1568177220E+00
          0                 3           1             4    7     1       0.9281950140E-04       4    7    1         0.5168236715E-02      0.1097641121E-01

    ------------------------------------------------
       NWT REQUIRED            3 OUTER ITERATIONS 
       AND A TOTAL OF          5 INNER ITERATIONS.
    ------------------------------------------------

 NO OUTPUT CONTROL FOR STRESS PERIOD   12   TIME STEP   18
 
 SOLVING FOR HEAD 
                                                   Max.-Head-Change                         Max.-Flux-Residual
  Residual-Control   Outer-Iter.   Inner-Iter.     Column Row Layer    Maximum-Head-Change  Column Row Layer    Maximum-Flux-Residual          L2-NORM 
          0                 1           2             4    7     1       0.1381933764E-01       4    7    1         0.7280833344E+00      0.1549550629E+01
          0                 2           2             4    7     1      -0.1344248906E-02       4    7    1        -0.7280861685E-01      0.1549471638E+00
          0                 3           1             4    7     1       0.9153832698E-04       4    7    1         0.5096602690E-02      0.1084555211E-01

    ------------------------------------------------
       NWT REQUIRED            3 OUTER ITERATIONS 
       AND A TOTAL OF          5 INNER ITERATIONS.
    ------------------------------------------------

 NO OUTPUT CONTROL FOR STRESS PERIOD   12   TIME STEP   19
 
 SOLVING FOR HEAD 
                                                   Max.-Head-Change                         Max.-Flux-Residual
  Residual-Control   Outer-Iter.   Inner-Iter.     Column Row Layer    Maximum-Head-Change  Column Row Layer    Maximum-Flux-Residual          L2-NORM 
          0                 1           2             4    7     1       0.1362950750E-01       4    7    1         0.7180402188E+00      0.1531195306E+01
          0                 2           2             4    7     1      -0.1325783498E-02       4    7    1        -0.7180429771E-01      0.1531125036E+00
          0                 3           1             4    7     1       0.9028090271E-04       4    7    1         0.5026300416E-02      0.1071722493E-01

    ------------------------------------------------
       NWT REQUIRED            3 OUTER ITERATIONS 
       AND A TOTAL OF          5 INNER ITERATIONS.
    ------------------------------------------------

 NO OUTPUT CONTROL FOR STRESS PERIOD   12   TIME STEP   20
 
 SOLVING FOR HEAD 
                                                   Max.-Head-Change                         Max.-Flux-Residual
  Residual-Control   Outer-Iter.   Inner-Iter.     Column Row Layer    Maximum-Head-Change  Column Row Layer    Maximum-Flux-Residual          L2-NORM 
          0                 1           2             4    7     1       0.1344319217E-01       4    7    1         0.7081830017E+00      0.1513195127E+01
          0                 2           2             4    7     1      -0.1307659989E-02       4    7    1        -0.7081856864E-01      0.1513131765E+00
          0                 3           1             4    7     1       0.8904675976E-04       4    7    1         0.4957299412E-02      0.1059133746E-01

    ------------------------------------------------
       NWT REQUIRED            3 OUTER ITERATIONS 
       AND A TOTAL OF          5 INNER ITERATIONS.
    ------------------------------------------------

 NO OUTPUT CONTROL FOR STRESS PERIOD   12   TIME STEP   21
 
 SOLVING FOR HEAD 
                                                   Max.-Head-Change                         Max.-Flux-Residual
  Residual-Control   Outer-Iter.   Inner-Iter.     Column Row Layer    Maximum-Head-Change  Column Row Layer    Maximum-Flux-Residual          L2-NORM 
          0                 1           2             4    7     1       0.1326003969E-01       4    7    1         0.6984932568E+00      0.1495524863E+01
          0                 2           2             4    7     1      -0.1289844140E-02       4    7    1        -0.6984958698E-01      0.1495468398E+00
          0                 3           1             4    7     1       0.8783356736E-04       4    7    1         0.4889470727E-02      0.1046776093E-01

    ------------------------------------------------
       NWT REQUIRED            3 OUTER ITERATIONS 
       AND A TOTAL OF          5 INNER ITERATIONS.
    ------------------------------------------------

 NO OUTPUT CONTROL FOR STRESS PERIOD   12   TIME STEP   22
 
 SOLVING FOR HEAD 
                                                   Max.-Head-Change                         Max.-Flux-Residual
  Residual-Control   Outer-Iter.   Inner-Iter.     Column Row Layer    Maximum-Head-Change  Column Row Layer    Maximum-Flux-Residual          L2-NORM 
          0                 1           2             4    7     1       0.1308026214E-01       4    7    1         0.6889822659E+00      0.1478184899E+01
          0                 2           2             4    7     1      -0.1272356585E-02       4    7    1        -0.6889848095E-01      0.1478133937E+00
          0                 3           1             4    7     1       0.8664273112E-04       4    7    1         0.4822893357E-02      0.1034651641E-01

    ------------------------------------------------
       NWT REQUIRED            3 OUTER ITERATIONS 
       AND A TOTAL OF          5 INNER ITERATIONS.
    ------------------------------------------------

 NO OUTPUT CONTROL FOR STRESS PERIOD   12   TIME STEP   23
 
 SOLVING FOR HEAD 
                                                   Max.-Head-Change                         Max.-Flux-Residual
  Residual-Control   Outer-Iter.   Inner-Iter.     Column Row Layer    Maximum-Head-Change  Column Row Layer    Maximum-Flux-Residual          L2-NORM 
          0                 1           2             4    7     1       0.1290351922E-01       4    7    1         0.6796314933E+00      0.1461163637E+01
          0                 2           2             4    7     1      -0.1255164219E-02       4    7    1        -0.6796339693E-01      0.1461117228E+00
          0                 3           1             4    7     1       0.8547199530E-04       4    7    1         0.4757437509E-02      0.1022735840E-01

    ------------------------------------------------
       NWT REQUIRED            3 OUTER ITERATIONS 
       AND A TOTAL OF          5 INNER ITERATIONS.
    ------------------------------------------------

 NO OUTPUT CONTROL FOR STRESS PERIOD   12   TIME STEP   24
 
 SOLVING FOR HEAD 
                                                   Max.-Head-Change                         Max.-Flux-Residual
  Residual-Control   Outer-Iter.   Inner-Iter.     Column Row Layer    Maximum-Head-Change  Column Row Layer    Maximum-Flux-Residual          L2-NORM 
          0                 1           2             4    7     1       0.1273002015E-01       4    7    1         0.6704528286E+00      0.1444446479E+01
          0                 2           2             4    7     1      -0.1238287393E-02       4    7    1        -0.6704552387E-01      0.1444404174E+00
          0                 3           1             4    7     1       0.8432274729E-04       4    7    1         0.4693186433E-02      0.1011039729E-01

    ------------------------------------------------
       NWT REQUIRED            3 OUTER ITERATIONS 
       AND A TOTAL OF          5 INNER ITERATIONS.
    ------------------------------------------------

 NO OUTPUT CONTROL FOR STRESS PERIOD   12   TIME STEP   25
 
 SOLVING FOR HEAD 
                                                   Max.-Head-Change                         Max.-Flux-Residual
  Residual-Control   Outer-Iter.   Inner-Iter.     Column Row Layer    Maximum-Head-Change  Column Row Layer    Maximum-Flux-Residual          L2-NORM 
          0                 1           2             4    7     1       0.1255968949E-01       4    7    1         0.6614423523E+00      0.1428032724E+01
          0                 2           2             4    7     1      -0.1221718770E-02       4    7    1        -0.6614446985E-01      0.1427994214E+00
          0                 3           1             4    7     1       0.8319448604E-04       4    7    1         0.4630112674E-02      0.9995560501E-02

    ------------------------------------------------
       NWT REQUIRED            3 OUTER ITERATIONS 
       AND A TOTAL OF          5 INNER ITERATIONS.
    ------------------------------------------------

 NO OUTPUT CONTROL FOR STRESS PERIOD   12   TIME STEP   26
 
 SOLVING FOR HEAD 
                                                   Max.-Head-Change                         Max.-Flux-Residual
  Residual-Control   Outer-Iter.   Inner-Iter.     Column Row Layer    Maximum-Head-Change  Column Row Layer    Maximum-Flux-Residual          L2-NORM 
          0                 1           2             4    7     1       0.1239246699E-01       4    7    1         0.6525961534E+00      0.1411924000E+01
          0                 2           2             4    7     1      -0.1205452489E-02       4    7    1        -0.6525984375E-01      0.1411888910E+00
          0                 3           1             4    7     1       0.8208681324E-04       4    7    1         0.4568188868E-02      0.9882878783E-02

    ------------------------------------------------
       NWT REQUIRED            3 OUTER ITERATIONS 
       AND A TOTAL OF          5 INNER ITERATIONS.
    ------------------------------------------------

 NO OUTPUT CONTROL FOR STRESS PERIOD   12   TIME STEP   27
 
 SOLVING FOR HEAD 
                                                   Max.-Head-Change                         Max.-Flux-Residual
  Residual-Control   Outer-Iter.   Inner-Iter.     Column Row Layer    Maximum-Head-Change  Column Row Layer    Maximum-Flux-Residual          L2-NORM 
          0                 1           2             4    7     1       0.1222800299E-01       4    7    1         0.6438963398E+00      0.1396084720E+01
          0                 2           2             4    7     1      -0.1189454537E-02       4    7    1        -0.6438985637E-01      0.1396053120E+00
          0                 3           1             4    7     1       0.8099741351E-04       4    7    1         0.4507289797E-02      0.9772056035E-02

    ------------------------------------------------
       NWT REQUIRED            3 OUTER ITERATIONS 
       AND A TOTAL OF          5 INNER ITERATIONS.
    ------------------------------------------------

 NO OUTPUT CONTROL FOR STRESS PERIOD   12   TIME STEP   28
 
 SOLVING FOR HEAD 
                                                   Max.-Head-Change                         Max.-Flux-Residual
  Residual-Control   Outer-Iter.   Inner-Iter.     Column Row Layer    Maximum-Head-Change  Column Row Layer    Maximum-Flux-Residual          L2-NORM 
          0                 1           2             4    7     1       0.1206652185E-01       4    7    1         0.6353543177E+00      0.1380530394E+01
          0                 2           2             4    7     1      -0.1173746739E-02       4    7    1        -0.6353564830E-01      0.1380501272E+00
          0                 3           1             4    7     1       0.7992777126E-04       4    7    1         0.4447495253E-02      0.9663224198E-02

    ------------------------------------------------
       NWT REQUIRED            3 OUTER ITERATIONS 
       AND A TOTAL OF          5 INNER ITERATIONS.
    ------------------------------------------------

 NO OUTPUT CONTROL FOR STRESS PERIOD   12   TIME STEP   29
 
 SOLVING FOR HEAD 
                                                   Max.-Head-Change                         Max.-Flux-Residual
  Residual-Control   Outer-Iter.   Inner-Iter.     Column Row Layer    Maximum-Head-Change  Column Row Layer    Maximum-Flux-Residual          L2-NORM 
          0                 1           2             4    7     1       0.1190795536E-01       4    7    1         0.6269669529E+00      0.1366253452E+01
          0                 2           2             4    7     1      -0.1158322459E-02       4    7    1        -0.6269690614E-01      0.1366198486E+00
          0                 3           1             4    7     1       0.7887743563E-04       4    7    1         0.4388783316E-02      0.9562894769E-02

    ------------------------------------------------
       NWT REQUIRED            3 OUTER ITERATIONS 
       AND A TOTAL OF          5 INNER ITERATIONS.
    ------------------------------------------------

 NO OUTPUT CONTROL FOR STRESS PERIOD   12   TIME STEP   30



 STREAM LISTING     PERIOD     12   STEP       30

 LAYER ROW COL. STREAM  RCH.  FLOW INTO     FLOW TO   FLOW OUT OF   OVRLND.     DIRECT     STREAM       STREAM     STREAM     STREAM   STREAMBED  STREAMBED
                SEG.NO.  NO.  STRM. RCH.    AQUIFER    STRM. RCH.    RUNOFF     PRECIP       ET          HEAD       DEPTH      WIDTH   CONDCTNC.   GRADIENT

   1    1    1     1     1    1.9081E+01  2.1479E-01   1.8866E+01  0.000E+00  0.000E+00  0.000E+00  1.09413E+03  1.083E+00  1.169E+01  5.260E-02  1.361E+00
   1    2    2     1     2    1.8866E+01  3.3136E-01   1.8535E+01  0.000E+00  0.000E+00  0.000E+00  1.08914E+03  1.079E+00  1.161E+01  8.124E-02  1.360E+00
   1    3    3     1     3    1.8535E+01  2.8134E-01   1.8253E+01  0.000E+00  0.000E+00  0.000E+00  1.08349E+03  1.074E+00  1.151E+01  6.906E-02  1.358E+00
   1    3    4     1     4    1.8253E+01  2.5804E-01   1.7995E+01  0.000E+00  0.000E+00  0.000E+00  1.07848E+03  1.069E+00  1.143E+01  6.342E-02  1.356E+00
   1    4    5     2     1    1.5995E+01  3.0564E-01   1.5690E+01  0.000E+00  0.000E+00  0.000E+00  1.07285E+03  9.184E-01  1.200E+01  7.800E-02  1.306E+00
   1    5    6     2     2    1.5690E+01  2.3454E-01   1.5455E+01  0.000E+00  0.000E+00  0.000E+00  1.06742E+03  9.090E-01  1.200E+01  6.000E-02  1.303E+00
   1    6    6     2     3    1.5455E+01  2.3405E-01   1.5221E+01  0.000E+00  0.000E+00  0.000E+00  1.06269E+03  9.008E-01  1.200E+01  6.000E-02  1.300E+00
   1    7    6     2     4    1.5221E+01  2.3355E-01   1.4987E+01  0.000E+00  0.000E+00  0.000E+00  1.05797E+03  8.925E-01  1.200E+01  6.000E-02  1.297E+00
   1    8    6     2     5    1.4987E+01  2.3305E-01   1.4754E+01  0.000E+00  0.000E+00  0.000E+00  1.05324E+03  8.842E-01  1.200E+01  6.000E-02  1.295E+00
   1    3    5     3     1    2.0000E+00  2.8252E-01   1.7175E+00  0.000E+00  0.000E+00  0.000E+00  1.07555E+03  1.909E+00  9.636E+00  7.227E-02  1.955E+00
   1    3    6     3     2    1.7175E+00  2.4905E-01   1.4684E+00  0.000E+00  0.000E+00  0.000E+00  1.07264E+03  1.727E+00  8.909E+00  6.682E-02  1.864E+00
   1    3    7     3     3    1.4684E+00  1.9718E-01   1.2712E+00  0.000E+00  0.000E+00  0.000E+00  1.06987E+03  1.555E+00  8.218E+00  5.547E-02  1.777E+00
   1    4    8     3     4    1.2712E+00  2.2567E-01   1.0456E+00  0.000E+00  0.000E+00  0.000E+00  1.06682E+03  1.364E+00  7.455E+00  6.709E-02  1.682E+00
   1    5    8     3     5    1.0456E+00  1.5790E-01   8.8768E-01  0.000E+00  0.000E+00  0.000E+00  1.06362E+03  1.164E+00  6.655E+00  4.991E-02  1.582E+00
   1    6    8     3     6    8.8768E-01  5.5980E-02   8.3170E-01  0.000E+00  0.000E+00  0.000E+00  1.06158E+03  1.036E+00  6.145E+00  1.844E-02  1.518E+00
   1    5   10     4     1    1.0000E+01  9.0919E-02   9.9091E+00  0.000E+00  0.000E+00  0.000E+00  1.07836E+03  6.368E-01  1.000E+01  2.500E-02  1.212E+00
   1    5    9     4     2    9.9091E+00  1.8158E-01   9.7275E+00  0.000E+00  0.000E+00  0.000E+00  1.07154E+03  6.315E-01  1.000E+01  5.000E-02  1.211E+00
   1    6    8     4     3    9.7275E+00  1.2689E-01   9.6006E+00  0.000E+00  0.000E+00  0.000E+00  1.06381E+03  6.256E-01  1.000E+01  3.500E-02  1.209E+00
   1    6    8     5     1    1.0432E+01  2.2686E-01   1.0205E+01  0.000E+00  0.000E+00  0.000E+00  1.05868E+03  6.790E-01  1.542E+01  6.166E-02  1.226E+00
   1    7    7     5     2    1.0205E+01  2.7894E-01   9.9265E+00  0.000E+00  0.000E+00  0.000E+00  1.05417E+03  6.732E-01  1.519E+01  7.594E-02  1.224E+00
   1    8    7     5     3    9.9265E+00  1.9221E-01   9.7343E+00  0.000E+00  0.000E+00  0.000E+00  1.04992E+03  6.676E-01  1.497E+01  5.241E-02  1.223E+00
   1    8    6     5     4    9.7343E+00  1.3577E-01   9.5985E+00  0.000E+00  0.000E+00  0.000E+00  1.04691E+03  6.637E-01  1.482E+01  3.706E-02  1.221E+00
   1    9    6     6     1    2.4353E+01  2.5190E-01   2.4101E+01  0.000E+00  0.000E+00  0.000E+00  1.04393E+03  1.198E+00  1.200E+01  6.000E-02  1.399E+00
   1   10    7     6     2    2.4101E+01  2.5145E-01   2.3850E+01  0.000E+00  0.000E+00  0.000E+00  1.03937E+03  1.191E+00  1.200E+01  6.000E-02  1.397E+00
   1   11    7     6     3    2.3850E+01  2.5100E-01   2.3599E+01  0.000E+00  0.000E+00  0.000E+00  1.03482E+03  1.183E+00  1.200E+01  6.000E-02  1.394E+00
   1   12    7     6     4    2.3599E+01  2.5054E-01   2.3348E+01  0.000E+00  0.000E+00  0.000E+00  1.03027E+03  1.176E+00  1.200E+01  6.000E-02  1.392E+00
   1   13    7     6     5    2.3348E+01 -1.1802E-02   2.3360E+01  0.000E+00  0.000E+00  0.000E+00  1.02708E+03  1.172E+00  1.200E+01  2.400E-01 -1.639E-02
   1   14    9     7     1    1.5000E+02  1.3359E+00   1.4866E+02  0.000E+00  0.000E+00  0.000E+00  1.03987E+03  2.288E+00  5.529E+01  5.593E-01  7.961E-01
   1   13    8     7     2    1.4866E+02  1.8212E+00   1.4684E+02  0.000E+00  0.000E+00  0.000E+00  1.03478E+03  2.279E+00  5.526E+01  6.148E-01  9.875E-01
   1   13    7     7     3    1.4684E+02  1.4294E+00   1.4541E+02  0.000E+00  0.000E+00  0.000E+00  1.02969E+03  2.271E+00  5.522E+01  5.585E-01  8.532E-01
   1   13    6     8     1    1.6877E+02  8.6911E-01   1.6790E+02  0.000E+00  0.000E+00  0.000E+00  1.02482E+03  2.941E+00  4.265E+01  4.346E-01  6.666E-01
   1   13    5     8     2    1.6790E+02  1.2446E-01   1.6778E+02  0.000E+00  0.000E+00  0.000E+00  1.01856E+03  2.938E+00  4.260E+01  4.341E-01  9.556E-02
   1   13    4     8     3    1.6778E+02 -2.6223E+00   1.7040E+02  0.000E+00  0.000E+00  0.000E+00  1.01232E+03  2.946E+00  4.272E+01  4.353E+00 -2.008E-01
   1   13    3     8     4    1.7040E+02 -3.7456E+00   1.7415E+02  0.000E+00  0.000E+00  0.000E+00  1.00609E+03  2.967E+00  4.302E+01  4.384E+00 -2.848E-01
   1   13    2     8     5    1.7415E+02 -2.6116E+00   1.7676E+02  0.000E+00  0.000E+00  0.000E+00  9.99862E+02  2.987E+00  4.332E+01  4.414E+00 -1.972E-01
   1   13    1     8     6    1.7676E+02 -1.9999E+00   1.7876E+02  0.000E+00  0.000E+00  0.000E+00  9.94877E+02  3.002E+00  4.353E+01  2.661E+00 -2.505E-01
   1    8    6     9     1    0.0000E+00  0.0000E+00   0.0000E+00  0.000E+00  0.000E+00  0.000E+00  1.07875E+03  0.000E+00  4.000E+00  0.000E+00  1.000E+00
   1    8    5     9     2    0.0000E+00  0.0000E+00   0.0000E+00  0.000E+00  0.000E+00  0.000E+00  1.07825E+03  0.000E+00  4.000E+00  0.000E+00  1.000E+00





UNSATURATED ZONE PACKAGE VOLUMETRIC BUDGET FOR  TIME STEP    30 STRESS PERIOD   12
  ------------------------------------------------------------------------------



     CUMULATIVE VOLUMES      L**3       RATES FOR THIS TIME STEP      L**3/T
     ------------------                 ------------------------

           IN:                                      IN:
           ---                                      ---
        INFILTRATION =   516180669.6224          INFILTRATION =           0.8475

          OUT:                                     OUT:
          ----                                     ----
              UZF ET =   428555012.2968                UZF ET =           0.7500
        UZF RECHARGE =       73224.0000          UZF RECHARGE =       0.0000E+00

            IN - OUT =    87552433.3256              IN - OUT =       9.7500E-02

          STORAGE:                                 STORAGE:
          --------                                 --------
      STORAGE CHANGE =    87552397.8483        STORAGE CHANGE =       9.7500E-02

 PERCENT DISCREPANCY IS DIFFERENCE BETWEEN IN-OUT MINUS CHANGE IN STORAGE
 DIVIDED BY THE AVERAGE OF IN AND OUT TIMES 100

 PERCENT DISCREPANCY =           0.00     PERCENT DISCREPANCY =           0.00






1
  VOLUMETRIC BUDGET FOR AGRICULTURAL FIELDS AT  END OF TIME STEP   30, STRESS PERIOD  12
  ------------------------------------------------------------------------------

     CUMULATIVE VOLUMES      L**3       RATES FOR THIS TIME STEP      L**3/T
     ------------------                 ------------------------

           IN:                                      IN:
           ---                                      ---
               AG WELLS  =   151827360.0000                 AG WELLS  =           0.0000
      DIVERSION SEGMENTS =   339757888.0000        DIVERSION SEGMENTS =           0.0000
           GW IRRIGATION =           0.0000             GW IRRIGATION =           0.0000
           SW IRRIGATION =           0.0000             SW IRRIGATION =           0.0000
        SYSTEM LOSSES GW =           0.0000          SYSTEM LOSSES GW =           0.0000
        SYSTEM LOSSES SW =           0.0000          SYSTEM LOSSES SW =           0.0000

                TOTAL IN =   491585248.0000                  TOTAL IN =           0.0000

          OUT:                                     OUT:
          ----                                     ----
               AG WELLS  =           0.0000                 AG WELLS  =           0.0000
      DIVERSION SEGMENTS =           0.0000        DIVERSION SEGMENTS =           0.0000
           GW IRRIGATION =   151827360.0000             GW IRRIGATION =           0.0000
           SW IRRIGATION =   339764480.0000             SW IRRIGATION =           0.0000
        SYSTEM LOSSES GW =           0.0000          SYSTEM LOSSES GW =           0.0000
        SYSTEM LOSSES SW =           0.0000          SYSTEM LOSSES SW =           0.0000

               TOTAL OUT =   491591840.0000                 TOTAL OUT =           0.0000

                IN - OUT =       -6592.0000                  IN - OUT =           0.0000

     PERCENT DISCREPANCY =          -0.00         PERCENT DISCREPANCY =           0.00



1
  VOLUMETRIC BUDGET FOR ENTIRE MODEL AT END OF TIME STEP   30, STRESS PERIOD  12
  ------------------------------------------------------------------------------

     CUMULATIVE VOLUMES      L**3       RATES FOR THIS TIME STEP      L**3/T
     ------------------                 ------------------------

           IN:                                      IN:
           ---                                      ---
             STORAGE     =   240127616.0000               STORAGE     =           3.8516
       CONSTANT HEAD     =           0.0000         CONSTANT HEAD     =           0.0000
     HEAD DEP BOUNDS     =     8291077.0000       HEAD DEP BOUNDS     =           0.2858
      STREAM LEAKAGE     =   349483584.0000        STREAM LEAKAGE     =          11.3128
        UZF RECHARGE     =       73223.9531          UZF RECHARGE     =           0.0000
               GW ET     =           0.0000                 GW ET     =           0.0000
     SURFACE LEAKAGE     =           0.0000       SURFACE LEAKAGE     =           0.0000
           AG WELLS      =           0.0000             AG WELLS      =           0.0000

                TOTAL IN =   597975488.0000                  TOTAL IN =          15.4502

          OUT:                                     OUT:
          ----                                     ----
             STORAGE     =   122398896.0000               STORAGE     =           4.1692
       CONSTANT HEAD     =           0.0000         CONSTANT HEAD     =           0.0000
     HEAD DEP BOUNDS     =     8443349.0000       HEAD DEP BOUNDS     =           0.2899
      STREAM LEAKAGE     =   313758016.0000        STREAM LEAKAGE     =          10.9912
        UZF RECHARGE     =           0.0000          UZF RECHARGE     =           0.0000
               GW ET     =     1552216.2500                 GW ET     =           0.0000
     SURFACE LEAKAGE     =           0.0000       SURFACE LEAKAGE     =           0.0000
           AG WELLS      =   151827360.0000             AG WELLS      =           0.0000

               TOTAL OUT =   597979840.0000                 TOTAL OUT =          15.4503

                IN - OUT =       -4352.0000                  IN - OUT =      -8.6784E-05

     PERCENT DISCREPANCY =          -0.00         PERCENT DISCREPANCY =          -0.00






         TIME SUMMARY AT END OF TIME STEP   30 IN STRESS PERIOD   12
                    SECONDS     MINUTES      HOURS       DAYS        YEARS
                    -----------------------------------------------------------
   TIME STEP LENGTH  87667.      1461.1      24.352      1.0147     2.77799E-03
 STRESS PERIOD TIME 2.63000E+06  43833.      730.56      30.440     8.33397E-02
         TOTAL TIME 2.90163E+07 4.83606E+05  8060.1      335.84     0.91947    
1
1
                            STRESS PERIOD NO.   13, LENGTH =   2630000.    
                            -----------------------------------------------

                              NUMBER OF TIME STEPS =    30

                               MULTIPLIER FOR DELT =     1.000

                            INITIAL TIME STEP SIZE =   87666.66    

 REUSING NON-PARAMETER GHB CELLS FROM LAST STRESS PERIOD

      2 GHB CELLS

 REUSING STREAM SEGMENT DATA FROM LAST STRESS PERIOD



            AREAL INFILTRATION RATE
 READING ON UNIT   19 WITH FORMAT: (FREE)              

            1           2           3           4           5           6           7           8           9          10
 ........................................................................................................................
   1   1.0000E-10  2.0000E-10   0.000       0.000       0.000       0.000       0.000       0.000       0.000       0.000    
   2   2.0000E-10  1.0000E-10  2.0000E-10   0.000       0.000      8.0000E-10  8.0000E-10  5.0000E-10   0.000       0.000    
   3    0.000      5.0000E-10  1.0000E-10  1.0000E-10  8.0000E-10  8.0000E-10  5.0000E-10  5.0000E-10   0.000       0.000    
   4   8.0000E-10  5.0000E-10  1.0000E-10  1.0000E-10  1.0000E-10  1.0000E-10  1.0000E-10  1.0000E-10  2.0000E-10   0.000    
   5   8.0000E-10  5.0000E-10  1.0000E-10  1.0000E-10  1.0000E-10  1.0000E-10  1.0000E-10  1.0000E-10  1.0000E-10  1.0000E-10
   6   8.0000E-10  5.0000E-10  5.0000E-10  2.0000E-10  2.0000E-10  1.0000E-10  1.0000E-10  1.0000E-10  1.0000E-10  5.0000E-10
   7   8.0000E-10  5.0000E-10  5.0000E-10  2.0000E-10  2.0000E-10  1.0000E-10  1.0000E-10  2.0000E-10  2.0000E-10   0.000    
   8    0.000      5.0000E-10  5.0000E-10  2.0000E-10  2.0000E-10  1.0000E-10  1.0000E-10  2.0000E-10  5.0000E-10   0.000    
   9    0.000      5.0000E-10  5.0000E-10  2.0000E-10  2.0000E-10  1.0000E-10  1.0000E-10  2.0000E-10  5.0000E-10   0.000    
  10    0.000      5.0000E-10  5.0000E-10  2.0000E-10  2.0000E-10  1.0000E-10  1.0000E-10  2.0000E-10  5.0000E-10  8.0000E-10
  11    0.000      1.0000E-10  1.0000E-10  1.0000E-10  1.0000E-10  1.0000E-10  1.0000E-10  2.0000E-10  5.0000E-10   0.000    
  12   1.0000E-10  1.0000E-10  1.0000E-10  1.0000E-10  1.0000E-10  1.0000E-10  1.0000E-10  1.0000E-10  2.0000E-10   0.000    
  13   1.0000E-10  1.0000E-10  2.0000E-10  2.0000E-10  2.0000E-10  2.0000E-10  2.0000E-10  1.0000E-10  1.0000E-10   0.000    
  14    0.000      2.0000E-10  5.0000E-10  5.0000E-10  5.0000E-10  5.0000E-10  5.0000E-10  2.0000E-10  1.0000E-10   0.000    
  15    0.000       0.000      8.0000E-10  8.0000E-10  8.0000E-10  8.0000E-10   0.000       0.000       0.000       0.000    

                  ET RATE =  5.000000E-10

 USING ET EXTINCTION DEPTH FROM PREVIOUS STRESS PERIOD. CURRENT PERIOD IS:      13

 USING EXTINCTION WATER CONTENT FROM PREVIOUS STRESS PERIOD. CURRENT PERIOD IS:      13

 USING AIR ENTRY PRESSURE FROM PREVIOUS STRESS PERIOD. CURRENT PERIOD IS:      13

 USING ROOT PRESSURE HEAD FROM PREVIOUS STRESS PERIOD. CURRENT PERIOD IS:      13

 USING ROOT ACTIVITY FROM PREVIOUS STRESS PERIOD. CURRENT PERIOD IS:      13

 PROCESSING AG STRESS PERIOD DATA

 READING AG STRESS PERIOD DATA

 READING IRRIGATION SEGMENT

 READING IRRIGATION WELL

 READING SUPPLEMENTAL WELL

 END PROCESSING AG STRESS PERIOD DATA OPTIONS
 
 SOLVING FOR HEAD 
                                                   Max.-Head-Change                         Max.-Flux-Residual
  Residual-Control   Outer-Iter.   Inner-Iter.     Column Row Layer    Maximum-Head-Change  Column Row Layer    Maximum-Flux-Residual          L2-NORM 
          0                 1           2             4    7     1       0.1175221488E-01       4    7    1         0.6187307081E+00      0.1357990865E+01
          0                 2           2             4    7     1      -0.1143173075E-02       4    7    1        -0.6187327614E-01      0.1357717969E+00
          0                 3           1             4    7     1       0.7784581968E-04       4    7    1         0.4331129246E-02      0.9501518406E-02

    ------------------------------------------------
       NWT REQUIRED            3 OUTER ITERATIONS 
       AND A TOTAL OF          5 INNER ITERATIONS.
    ------------------------------------------------

 NO OUTPUT CONTROL FOR STRESS PERIOD   13   TIME STEP    1
 
 SOLVING FOR HEAD 
                                                   Max.-Head-Change                         Max.-Flux-Residual
  Residual-Control   Outer-Iter.   Inner-Iter.     Column Row Layer    Maximum-Head-Change  Column Row Layer    Maximum-Flux-Residual          L2-NORM 
          0                 1           2             4    7     1       0.1159897111E-01       4    7    1         0.6106262173E+00      0.1342652076E+01
          0                 2           2             4    7     1      -0.1128266556E-02       4    7    1        -0.6106282170E-01      0.1342412137E+00
          0                 3           1             4    7     1       0.7683074174E-04       4    7    1         0.4274397472E-02      0.9394710419E-02

    ------------------------------------------------
       NWT REQUIRED            3 OUTER ITERATIONS 
       AND A TOTAL OF          5 INNER ITERATIONS.
    ------------------------------------------------

 NO OUTPUT CONTROL FOR STRESS PERIOD   13   TIME STEP    2
 
 SOLVING FOR HEAD 
                                                   Max.-Head-Change                         Max.-Flux-Residual
  Residual-Control   Outer-Iter.   Inner-Iter.     Column Row Layer    Maximum-Head-Change  Column Row Layer    Maximum-Flux-Residual          L2-NORM 
          0                 1           2             4    7     1       0.1144872201E-01       4    7    1         0.6026807170E+00      0.1327635948E+01
          0                 2           2             4    7     1      -0.1113651339E-02       4    7    1        -0.6026826648E-01      0.1327422468E+00
          0                 3           1             4    7     1       0.7583550058E-04       4    7    1         0.4218778634E-02      0.9289967350E-02

    ------------------------------------------------
       NWT REQUIRED            3 OUTER ITERATIONS 
       AND A TOTAL OF          5 INNER ITERATIONS.
    ------------------------------------------------

 NO OUTPUT CONTROL FOR STRESS PERIOD   13   TIME STEP    3
 
 SOLVING FOR HEAD 
                                                   Max.-Head-Change                         Max.-Flux-Residual
  Residual-Control   Outer-Iter.   Inner-Iter.     Column Row Layer    Maximum-Head-Change  Column Row Layer    Maximum-Flux-Residual          L2-NORM 
          0                 1           2             4    7     1       0.1130085295E-01       4    7    1         0.5948609456E+00      0.1312928740E+01
          0                 2           2             4    7     1      -0.1099267638E-02       4    7    1        -0.5948628429E-01      0.1312738035E+00
          0                 3           1             4    7     1       0.7485602469E-04       4    7    1         0.4164039906E-02      0.9187333904E-02

    ------------------------------------------------
       NWT REQUIRED            3 OUTER ITERATIONS 
       AND A TOTAL OF          5 INNER ITERATIONS.
    ------------------------------------------------

 NO OUTPUT CONTROL FOR STRESS PERIOD   13   TIME STEP    4
 
 SOLVING FOR HEAD 
                                                   Max.-Head-Change                         Max.-Flux-Residual
  Residual-Control   Outer-Iter.   Inner-Iter.     Column Row Layer    Maximum-Head-Change  Column Row Layer    Maximum-Flux-Residual          L2-NORM 
          0                 1           2             4    7     1       0.1115558859E-01       4    7    1         0.5871793463E+00      0.1298507671E+01
          0                 2           2             4    7     1      -0.1085137304E-02       4    7    1        -0.5871811944E-01      0.1298338247E+00
          0                 3           1             4    7     1       0.7389380182E-04       4    7    1         0.4110268381E-02      0.9086863875E-02

    ------------------------------------------------
       NWT REQUIRED            3 OUTER ITERATIONS 
       AND A TOTAL OF          5 INNER ITERATIONS.
    ------------------------------------------------

 NO OUTPUT CONTROL FOR STRESS PERIOD   13   TIME STEP    5
 
 SOLVING FOR HEAD 
                                                   Max.-Head-Change                         Max.-Flux-Residual
  Residual-Control   Outer-Iter.   Inner-Iter.     Column Row Layer    Maximum-Head-Change  Column Row Layer    Maximum-Flux-Residual          L2-NORM 
          0                 1           2             4    7     1       0.1101287170E-01       4    7    1         0.5796327963E+00      0.1284368904E+01
          0                 2           2             4    7     1      -0.1071254771E-02       4    7    1        -0.5796345965E-01      0.1284217458E+00
          0                 3           1             4    7     1       0.7294845374E-04       4    7    1         0.4057442228E-02      0.8988068073E-02

    ------------------------------------------------
       NWT REQUIRED            3 OUTER ITERATIONS 
       AND A TOTAL OF          5 INNER ITERATIONS.
    ------------------------------------------------

 NO OUTPUT CONTROL FOR STRESS PERIOD   13   TIME STEP    6
 
 SOLVING FOR HEAD 
                                                   Max.-Head-Change                         Max.-Flux-Residual
  Residual-Control   Outer-Iter.   Inner-Iter.     Column Row Layer    Maximum-Head-Change  Column Row Layer    Maximum-Flux-Residual          L2-NORM 
          0                 1           2             4    7     1       0.1087265106E-01       4    7    1         0.5722183289E+00      0.1270505862E+01
          0                 2           2             4    7     1      -0.1057615058E-02       4    7    1        -0.5722200828E-01      0.1270370704E+00
          0                 3           1             4    7     1       0.7201964014E-04       4    7    1         0.4005540639E-02      0.8891308997E-02

    ------------------------------------------------
       NWT REQUIRED            3 OUTER ITERATIONS 
       AND A TOTAL OF          5 INNER ITERATIONS.
    ------------------------------------------------

 NO OUTPUT CONTROL FOR STRESS PERIOD   13   TIME STEP    7
 
 SOLVING FOR HEAD 
                                                   Max.-Head-Change                         Max.-Flux-Residual
  Residual-Control   Outer-Iter.   Inner-Iter.     Column Row Layer    Maximum-Head-Change  Column Row Layer    Maximum-Flux-Residual          L2-NORM 
          0                 1           2             4    7     1       0.1073486666E-01       4    7    1         0.5649332882E+00      0.1256884504E+01
          0                 2           2             4    7     1      -0.1044212327E-02       4    7    1        -0.5649349969E-01      0.1256764154E+00
          0                 3           1             4    7     1       0.7110696481E-04       4    7    1         0.3954545079E-02      0.8796240967E-02

    ------------------------------------------------
       NWT REQUIRED            3 OUTER ITERATIONS 
       AND A TOTAL OF          5 INNER ITERATIONS.
    ------------------------------------------------

 NO OUTPUT CONTROL FOR STRESS PERIOD   13   TIME STEP    8
 
 SOLVING FOR HEAD 
                                                   Max.-Head-Change                         Max.-Flux-Residual
  Residual-Control   Outer-Iter.   Inner-Iter.     Column Row Layer    Maximum-Head-Change  Column Row Layer    Maximum-Flux-Residual          L2-NORM 
          0                 1           2             4    7     1       0.1059946559E-01       4    7    1         0.5577745629E+00      0.1243515868E+01
          0                 2           2             4    7     1      -0.1031041430E-02       4    7    1        -0.5577762278E-01      0.1243407198E+00
          0                 3           1             4    7     1       0.7021007583E-04       4    7    1         0.3904433694E-02      0.8702798831E-02

    ------------------------------------------------
       NWT REQUIRED            3 OUTER ITERATIONS 
       AND A TOTAL OF          5 INNER ITERATIONS.
    ------------------------------------------------

 NO OUTPUT CONTROL FOR STRESS PERIOD   13   TIME STEP    9
 
 SOLVING FOR HEAD 
                                                   Max.-Head-Change                         Max.-Flux-Residual
  Residual-Control   Outer-Iter.   Inner-Iter.     Column Row Layer    Maximum-Head-Change  Column Row Layer    Maximum-Flux-Residual          L2-NORM 
          0                 1           2             4    7     1       0.1046639441E-01       4    7    1         0.5507394099E+00      0.1230382792E+01
          0                 2           2             4    7     1      -0.1018097170E-02       4    7    1        -0.5507410324E-01      0.1230285974E+00
          0                 3           1             4    7     1       0.6932862054E-04       4    7    1         0.3855187350E-02      0.8611088823E-02

    ------------------------------------------------
       NWT REQUIRED            3 OUTER ITERATIONS 
       AND A TOTAL OF          5 INNER ITERATIONS.
    ------------------------------------------------

 NO OUTPUT CONTROL FOR STRESS PERIOD   13   TIME STEP   10
 
 SOLVING FOR HEAD 
                                                   Max.-Head-Change                         Max.-Flux-Residual
  Residual-Control   Outer-Iter.   Inner-Iter.     Column Row Layer    Maximum-Head-Change  Column Row Layer    Maximum-Flux-Residual          L2-NORM 
          0                 1           2             4    7     1       0.1033560763E-01       4    7    1         0.5438250580E+00      0.1217488718E+01
          0                 2           2             4    7     1      -0.1005375122E-02       4    7    1        -0.5438266393E-01      0.1217400973E+00
          0                 3           1             4    7     1       0.6846229720E-04       4    7    1         0.3806786642E-02      0.8521033049E-02

    ------------------------------------------------
       NWT REQUIRED            3 OUTER ITERATIONS 
       AND A TOTAL OF          5 INNER ITERATIONS.
    ------------------------------------------------

 NO OUTPUT CONTROL FOR STRESS PERIOD   13   TIME STEP   11
 
 SOLVING FOR HEAD 
                                                   Max.-Head-Change                         Max.-Flux-Residual
  Residual-Control   Outer-Iter.   Inner-Iter.     Column Row Layer    Maximum-Head-Change  Column Row Layer    Maximum-Flux-Residual          L2-NORM 
          0                 1           2             4    7     1       0.1020705118E-01       4    7    1         0.5370291487E+00      0.1204810586E+01
          0                 2           2             4    7     1      -0.9928700252E-03       4    7    1        -0.5370306896E-01      0.1204731621E+00
          0                 3           1             4    7     1       0.6761074654E-04       4    7    1         0.3759214989E-02      0.8432419879E-02

    ------------------------------------------------
       NWT REQUIRED            3 OUTER ITERATIONS 
       AND A TOTAL OF          5 INNER ITERATIONS.
    ------------------------------------------------

 NO OUTPUT CONTROL FOR STRESS PERIOD   13   TIME STEP   12
 
 SOLVING FOR HEAD 
                                                   Max.-Head-Change                         Max.-Flux-Residual
  Residual-Control   Outer-Iter.   Inner-Iter.     Column Row Layer    Maximum-Head-Change  Column Row Layer    Maximum-Flux-Residual          L2-NORM 
          0                 1           2             4    7     1       0.1008068083E-01       4    7    1         0.5303488790E+00      0.1192347744E+01
          0                 2           2             4    7     1      -0.9805775779E-03       4    7    1        -0.5303503809E-01      0.1192275063E+00
          0                 3           1             4    7     1       0.6677367720E-04       4    7    1         0.3712452858E-02      0.8345180911E-02

    ------------------------------------------------
       NWT REQUIRED            3 OUTER ITERATIONS 
       AND A TOTAL OF          5 INNER ITERATIONS.
    ------------------------------------------------

 NO OUTPUT CONTROL FOR STRESS PERIOD   13   TIME STEP   13
 
 SOLVING FOR HEAD 
                                                   Max.-Head-Change                         Max.-Flux-Residual
  Residual-Control   Outer-Iter.   Inner-Iter.     Column Row Layer    Maximum-Head-Change  Column Row Layer    Maximum-Flux-Residual          L2-NORM 
          0                 1           2             4    7     1       0.9956449329E-02       4    7    1         0.5237819547E+00      0.1180105810E+01
          0                 2           2             4    7     1      -0.9684931842E-03       4    7    1        -0.5237834186E-01      0.1180040437E+00
          0                 3           1             4    7     1       0.6595077512E-04       4    7    1         0.3666484117E-02      0.8259693364E-02

    ------------------------------------------------
       NWT REQUIRED            3 OUTER ITERATIONS 
       AND A TOTAL OF          5 INNER ITERATIONS.
    ------------------------------------------------

 NO OUTPUT CONTROL FOR STRESS PERIOD   13   TIME STEP   14
 
 SOLVING FOR HEAD 
                                                   Max.-Head-Change                         Max.-Flux-Residual
  Residual-Control   Outer-Iter.   Inner-Iter.     Column Row Layer    Maximum-Head-Change  Column Row Layer    Maximum-Flux-Residual          L2-NORM 
          0                 1           2             4    7     1       0.9834309742E-02       4    7    1         0.5173259272E+00      0.1168055706E+01
          0                 2           2             4    7     1      -0.9566122789E-03       4    7    1        -0.5173273541E-01      0.1167995655E+00
          0                 3           1             4    7     1       0.6514173049E-04       4    7    1         0.3621291707E-02      0.8175434461E-02

    ------------------------------------------------
       NWT REQUIRED            3 OUTER ITERATIONS 
       AND A TOTAL OF          5 INNER ITERATIONS.
    ------------------------------------------------

 NO OUTPUT CONTROL FOR STRESS PERIOD   13   TIME STEP   15
 
 SOLVING FOR HEAD 
                                                   Max.-Head-Change                         Max.-Flux-Residual
  Residual-Control   Outer-Iter.   Inner-Iter.     Column Row Layer    Maximum-Head-Change  Column Row Layer    Maximum-Flux-Residual          L2-NORM 
          0                 1           2             4    7     1       0.9714483358E-02       4    7    1         0.5109931366E+00      0.1156210477E+01
          0                 2           2             4    7     1      -0.9449563860E-03       4    7    1        -0.5109945276E-01      0.1156156394E+00
          0                 3           1             4    7     1       0.6434800786E-04       4    7    1         0.3576961928E-02      0.8092588795E-02

    ------------------------------------------------
       NWT REQUIRED            3 OUTER ITERATIONS 
       AND A TOTAL OF          5 INNER ITERATIONS.
    ------------------------------------------------

 NO OUTPUT CONTROL FOR STRESS PERIOD   13   TIME STEP   16
 
 SOLVING FOR HEAD 
                                                   Max.-Head-Change                         Max.-Flux-Residual
  Residual-Control   Outer-Iter.   Inner-Iter.     Column Row Layer    Maximum-Head-Change  Column Row Layer    Maximum-Flux-Residual          L2-NORM 
          0                 1           2             4    7     1       0.9596370412E-02       4    7    1         0.5047507329E+00      0.1144548002E+01
          0                 2           2             4    7     1      -0.9334671654E-03       4    7    1        -0.5047520890E-01      0.1144498102E+00
          0                 3           1             4    7     1       0.6356563443E-04       4    7    1         0.3533264856E-02      0.8011027604E-02

    ------------------------------------------------
       NWT REQUIRED            3 OUTER ITERATIONS 
       AND A TOTAL OF          5 INNER ITERATIONS.
    ------------------------------------------------

 NO OUTPUT CONTROL FOR STRESS PERIOD   13   TIME STEP   17
 
 SOLVING FOR HEAD 
                                                   Max.-Head-Change                         Max.-Flux-Residual
  Residual-Control   Outer-Iter.   Inner-Iter.     Column Row Layer    Maximum-Head-Change  Column Row Layer    Maximum-Flux-Residual          L2-NORM 
          0                 1           2             4    7     1       0.9480489906E-02       4    7    1         0.4986267180E+00      0.1133084103E+01
          0                 2           2             4    7     1      -0.9221951022E-03       4    7    1        -0.4986280404E-01      0.1133038538E+00
          0                 3           1             4    7     1       0.6279804952E-04       4    7    1         0.3490396537E-02      0.7930848772E-02

    ------------------------------------------------
       NWT REQUIRED            3 OUTER ITERATIONS 
       AND A TOTAL OF          5 INNER ITERATIONS.
    ------------------------------------------------

 NO OUTPUT CONTROL FOR STRESS PERIOD   13   TIME STEP   18
 
 SOLVING FOR HEAD 
                                                   Max.-Head-Change                         Max.-Flux-Residual
  Residual-Control   Outer-Iter.   Inner-Iter.     Column Row Layer    Maximum-Head-Change  Column Row Layer    Maximum-Flux-Residual          L2-NORM 
          0                 1           2             4    7     1       0.9366237902E-02       4    7    1         0.4925889016E+00      0.1121793026E+01
          0                 2           2             4    7     1      -0.9110899810E-03       4    7    1        -0.4925901910E-01      0.1121920471E+00
          0                 3           1             4    7     1       0.6204183250E-04       4    7    1         0.3448131613E-02      0.7853066978E-02

    ------------------------------------------------
       NWT REQUIRED            3 OUTER ITERATIONS 
       AND A TOTAL OF          5 INNER ITERATIONS.
    ------------------------------------------------

 NO OUTPUT CONTROL FOR STRESS PERIOD   13   TIME STEP   19
 
 SOLVING FOR HEAD 
                                                   Max.-Head-Change                         Max.-Flux-Residual
  Residual-Control   Outer-Iter.   Inner-Iter.     Column Row Layer    Maximum-Head-Change  Column Row Layer    Maximum-Flux-Residual          L2-NORM 
          0                 1           2             4    7     1       0.9254075665E-02       4    7    1         0.4866646179E+00      0.1110680615E+01
          0                 2           2             4    7     1      -0.9001710805E-03       4    7    1        -0.4866658759E-01      0.1110642172E+00
          0                 3           1             4    7     1       0.6129829644E-04       4    7    1         0.3406661423E-02      0.7774148066E-02

    ------------------------------------------------
       NWT REQUIRED            3 OUTER ITERATIONS 
       AND A TOTAL OF          5 INNER ITERATIONS.
    ------------------------------------------------

 NO OUTPUT CONTROL FOR STRESS PERIOD   13   TIME STEP   20
 
 SOLVING FOR HEAD 
                                                   Max.-Head-Change                         Max.-Flux-Residual
  Residual-Control   Outer-Iter.   Inner-Iter.     Column Row Layer    Maximum-Head-Change  Column Row Layer    Maximum-Flux-Residual          L2-NORM 
          0                 1           2             4    7     1       0.9143705456E-02       4    7    1         0.4808348159E+00      0.1099696806E+01
          0                 2           2             4    7     1      -0.8894350227E-03       4    7    1        -0.4808360431E-01      0.1099661341E+00
          0                 3           1             4    7     1       0.6056721081E-04       4    7    1         0.3365852586E-02      0.7697330006E-02

    ------------------------------------------------
       NWT REQUIRED            3 OUTER ITERATIONS 
       AND A TOTAL OF          5 INNER ITERATIONS.
    ------------------------------------------------

 NO OUTPUT CONTROL FOR STRESS PERIOD   13   TIME STEP   21
 
 SOLVING FOR HEAD 
                                                   Max.-Head-Change                         Max.-Flux-Residual
  Residual-Control   Outer-Iter.   Inner-Iter.     Column Row Layer    Maximum-Head-Change  Column Row Layer    Maximum-Flux-Residual          L2-NORM 
          0                 1           2             4    7     1       0.9035080248E-02       4    7    1         0.4750974748E+00      0.1088873680E+01
          0                 2           2             4    7     1      -0.8788687078E-03       4    7    1        -0.4750986723E-01      0.1088834100E+00
          0                 3           1             4    7     1       0.5984768453E-04       4    7    1         0.3325691003E-02      0.7621503432E-02

    ------------------------------------------------
       NWT REQUIRED            3 OUTER ITERATIONS 
       AND A TOTAL OF          5 INNER ITERATIONS.
    ------------------------------------------------

 NO OUTPUT CONTROL FOR STRESS PERIOD   13   TIME STEP   22
 
 SOLVING FOR HEAD 
                                                   Max.-Head-Change                         Max.-Flux-Residual
  Residual-Control   Outer-Iter.   Inner-Iter.     Column Row Layer    Maximum-Head-Change  Column Row Layer    Maximum-Flux-Residual          L2-NORM 
          0                 1           2             4    7     1       0.8928176624E-02       4    7    1         0.4694506093E+00      0.1078233923E+01
          0                 2           2             4    7     1      -0.8684698570E-03       4    7    1        -0.4694517776E-01      0.1078202256E+00
          0                 3           1             4    7     1       0.5913956166E-04       4    7    1         0.3286162758E-02      0.7547128359E-02

    ------------------------------------------------
       NWT REQUIRED            3 OUTER ITERATIONS 
       AND A TOTAL OF          5 INNER ITERATIONS.
    ------------------------------------------------

 NO OUTPUT CONTROL FOR STRESS PERIOD   13   TIME STEP   23
 
 SOLVING FOR HEAD 
                                                   Max.-Head-Change                         Max.-Flux-Residual
  Residual-Control   Outer-Iter.   Inner-Iter.     Column Row Layer    Maximum-Head-Change  Column Row Layer    Maximum-Flux-Residual          L2-NORM 
          0                 1           2             4    7     1       0.8823225359E-02       4    7    1         0.4639077825E+00      0.1067758399E+01
          0                 2           2             4    7     1      -0.8582609190E-03       4    7    1        -0.4639089226E-01      0.1067729573E+00
          0                 3           1             4    7     1       0.5844437131E-04       4    7    1         0.3247362790E-02      0.7473839075E-02

    ------------------------------------------------
       NWT REQUIRED            3 OUTER ITERATIONS 
       AND A TOTAL OF          5 INNER ITERATIONS.
    ------------------------------------------------

 NO OUTPUT CONTROL FOR STRESS PERIOD   13   TIME STEP   24
 
 SOLVING FOR HEAD 
                                                   Max.-Head-Change                         Max.-Flux-Residual
  Residual-Control   Outer-Iter.   Inner-Iter.     Column Row Layer    Maximum-Head-Change  Column Row Layer    Maximum-Flux-Residual          L2-NORM 
          0                 1           2             4    7     1       0.8719639932E-02       4    7    1         0.4584366286E+00      0.1057435708E+01
          0                 2           2             4    7     1      -0.8481848404E-03       4    7    1        -0.4584377409E-01      0.1057364775E+00
          0                 3           1             4    7     1       0.5775822828E-04       4    7    1         0.3209064523E-02      0.7418268131E-02

    ------------------------------------------------
       NWT REQUIRED            3 OUTER ITERATIONS 
       AND A TOTAL OF          5 INNER ITERATIONS.
    ------------------------------------------------

 NO OUTPUT CONTROL FOR STRESS PERIOD   13   TIME STEP   25
 
 SOLVING FOR HEAD 
                                                   Max.-Head-Change                         Max.-Flux-Residual
  Residual-Control   Outer-Iter.   Inner-Iter.     Column Row Layer    Maximum-Head-Change  Column Row Layer    Maximum-Flux-Residual          L2-NORM 
          0                 1           2             4    7     1       0.8617947819E-02       4    7    1         0.4530658458E+00      0.1047273839E+01
          0                 2           2             4    7     1      -0.8382929315E-03       4    7    1        -0.4530669316E-01      0.1047248460E+00
          0                 3           1             4    7     1       0.5708462633E-04       4    7    1         0.3171468877E-02      0.7330467502E-02

    ------------------------------------------------
       NWT REQUIRED            3 OUTER ITERATIONS 
       AND A TOTAL OF          5 INNER ITERATIONS.
    ------------------------------------------------

 NO OUTPUT CONTROL FOR STRESS PERIOD   13   TIME STEP   26
 
 SOLVING FOR HEAD 
                                                   Max.-Head-Change                         Max.-Flux-Residual
  Residual-Control   Outer-Iter.   Inner-Iter.     Column Row Layer    Maximum-Head-Change  Column Row Layer    Maximum-Flux-Residual          L2-NORM 
          0                 1           2             4    7     1       0.8518107592E-02       4    7    1         0.4477932291E+00      0.1037277803E+01
          0                 2           2             4    7     1      -0.8285811607E-03       4    7    1        -0.4477942886E-01      0.1037254040E+00
          0                 3           1             4    7     1       0.5642329068E-04       4    7    1         0.3134560365E-02      0.7260537454E-02

    ------------------------------------------------
       NWT REQUIRED            3 OUTER ITERATIONS 
       AND A TOTAL OF          5 INNER ITERATIONS.
    ------------------------------------------------

 NO OUTPUT CONTROL FOR STRESS PERIOD   13   TIME STEP   27
 
 SOLVING FOR HEAD 
                                                   Max.-Head-Change                         Max.-Flux-Residual
  Residual-Control   Outer-Iter.   Inner-Iter.     Column Row Layer    Maximum-Head-Change  Column Row Layer    Maximum-Flux-Residual          L2-NORM 
          0                 1           2             4    7     1       0.8419526965E-02       4    7    1         0.4425870745E+00      0.1027416191E+01
          0                 2           2             4    7     1      -0.8189919162E-03       4    7    1        -0.4425881085E-01      0.1027393680E+00
          0                 3           1             4    7     1       0.5577029918E-04       4    7    1         0.3098117123E-02      0.7191559097E-02

    ------------------------------------------------
       NWT REQUIRED            3 OUTER ITERATIONS 
       AND A TOTAL OF          5 INNER ITERATIONS.
    ------------------------------------------------

 NO OUTPUT CONTROL FOR STRESS PERIOD   13   TIME STEP   28
 
 SOLVING FOR HEAD 
                                                   Max.-Head-Change                         Max.-Flux-Residual
  Residual-Control   Outer-Iter.   Inner-Iter.     Column Row Layer    Maximum-Head-Change  Column Row Layer    Maximum-Flux-Residual          L2-NORM 
          0                 1           2             4    7     1       0.8322736428E-02       4    7    1         0.4374757841E+00      0.1017714343E+01
          0                 2           2             4    7     1      -0.8095767992E-03       4    7    1        -0.4374767932E-01      0.1017694963E+00
          0                 3           1             4    7     1       0.5512916502E-04       4    7    1         0.3062337917E-02      0.7123674422E-02

    ------------------------------------------------
       NWT REQUIRED            3 OUTER ITERATIONS 
       AND A TOTAL OF          5 INNER ITERATIONS.
    ------------------------------------------------

 NO OUTPUT CONTROL FOR STRESS PERIOD   13   TIME STEP   29
 
 SOLVING FOR HEAD 
                                                   Max.-Head-Change                         Max.-Flux-Residual
  Residual-Control   Outer-Iter.   Inner-Iter.     Column Row Layer    Maximum-Head-Change  Column Row Layer    Maximum-Flux-Residual          L2-NORM 
          0                 1           2             4    7     1       0.8227417621E-02       4    7    1         0.4324425293E+00      0.1008148485E+01
          0                 2           2             4    7     1      -0.8003048431E-03       4    7    1        -0.4324435144E-01      0.1008124694E+00
          0                 3           1             4    7     1       0.5449777966E-04       4    7    1         0.3027104984E-02      0.7056711623E-02

    ------------------------------------------------
       NWT REQUIRED            3 OUTER ITERATIONS 
       AND A TOTAL OF          5 INNER ITERATIONS.
    ------------------------------------------------

 NO OUTPUT CONTROL FOR STRESS PERIOD   13   TIME STEP   30



 STREAM LISTING     PERIOD     13   STEP       30

 LAYER ROW COL. STREAM  RCH.  FLOW INTO     FLOW TO   FLOW OUT OF   OVRLND.     DIRECT     STREAM       STREAM     STREAM     STREAM   STREAMBED  STREAMBED
                SEG.NO.  NO.  STRM. RCH.    AQUIFER    STRM. RCH.    RUNOFF     PRECIP       ET          HEAD       DEPTH      WIDTH   CONDCTNC.   GRADIENT

   1    1    1     1     1    1.7250E+01  2.0269E-01   1.7047E+01  0.000E+00  0.000E+00  0.000E+00  1.09410E+03  1.052E+00  1.112E+01  5.002E-02  1.351E+00
   1    2    2     1     2    1.7047E+01  3.1258E-01   1.6735E+01  0.000E+00  0.000E+00  0.000E+00  1.08911E+03  1.047E+00  1.103E+01  7.723E-02  1.349E+00
   1    3    3     1     3    1.6735E+01  2.6529E-01   1.6469E+01  0.000E+00  0.000E+00  0.000E+00  1.08346E+03  1.042E+00  1.094E+01  6.563E-02  1.347E+00
   1    3    4     1     4    1.6469E+01  2.4324E-01   1.6226E+01  0.000E+00  0.000E+00  0.000E+00  1.07845E+03  1.038E+00  1.085E+01  6.024E-02  1.346E+00
   1    4    5     2     1    1.4226E+01  3.0073E-01   1.3925E+01  0.000E+00  0.000E+00  0.000E+00  1.07279E+03  8.555E-01  1.200E+01  7.800E-02  1.285E+00
   1    5    6     2     2    1.3925E+01  2.3075E-01   1.3695E+01  0.000E+00  0.000E+00  0.000E+00  1.06736E+03  8.458E-01  1.200E+01  6.000E-02  1.282E+00
   1    6    6     2     3    1.3695E+01  2.3024E-01   1.3464E+01  0.000E+00  0.000E+00  0.000E+00  1.06263E+03  8.373E-01  1.200E+01  6.000E-02  1.279E+00
   1    7    6     2     4    1.3464E+01  2.2972E-01   1.3235E+01  0.000E+00  0.000E+00  0.000E+00  1.05790E+03  8.287E-01  1.200E+01  6.000E-02  1.276E+00
   1    8    6     2     5    1.3235E+01  2.2921E-01   1.3005E+01  0.000E+00  0.000E+00  0.000E+00  1.05318E+03  8.202E-01  1.200E+01  6.000E-02  1.273E+00
   1    3    5     3     1    2.0000E+00  2.8252E-01   1.7175E+00  0.000E+00  0.000E+00  0.000E+00  1.07555E+03  1.909E+00  9.636E+00  7.227E-02  1.955E+00
   1    3    6     3     2    1.7175E+00  2.4905E-01   1.4684E+00  0.000E+00  0.000E+00  0.000E+00  1.07264E+03  1.727E+00  8.909E+00  6.682E-02  1.864E+00
   1    3    7     3     3    1.4684E+00  1.9718E-01   1.2712E+00  0.000E+00  0.000E+00  0.000E+00  1.06987E+03  1.555E+00  8.218E+00  5.547E-02  1.777E+00
   1    4    8     3     4    1.2712E+00  2.2567E-01   1.0456E+00  0.000E+00  0.000E+00  0.000E+00  1.06682E+03  1.364E+00  7.455E+00  6.709E-02  1.682E+00
   1    5    8     3     5    1.0456E+00  1.5790E-01   8.8768E-01  0.000E+00  0.000E+00  0.000E+00  1.06362E+03  1.164E+00  6.655E+00  4.991E-02  1.582E+00
   1    6    8     3     6    8.8768E-01  5.5980E-02   8.3170E-01  0.000E+00  0.000E+00  0.000E+00  1.06158E+03  1.036E+00  6.145E+00  1.844E-02  1.518E+00
   1    5   10     4     1    1.0000E+01  9.0919E-02   9.9091E+00  0.000E+00  0.000E+00  0.000E+00  1.07836E+03  6.368E-01  1.000E+01  2.500E-02  1.212E+00
   1    5    9     4     2    9.9091E+00  1.8158E-01   9.7275E+00  0.000E+00  0.000E+00  0.000E+00  1.07154E+03  6.315E-01  1.000E+01  5.000E-02  1.211E+00
   1    6    8     4     3    9.7275E+00  1.2689E-01   9.6006E+00  0.000E+00  0.000E+00  0.000E+00  1.06381E+03  6.256E-01  1.000E+01  3.500E-02  1.209E+00
   1    6    8     5     1    1.0432E+01  2.2686E-01   1.0205E+01  0.000E+00  0.000E+00  0.000E+00  1.05868E+03  6.790E-01  1.542E+01  6.166E-02  1.226E+00
   1    7    7     5     2    1.0205E+01  2.7894E-01   9.9265E+00  0.000E+00  0.000E+00  0.000E+00  1.05417E+03  6.732E-01  1.519E+01  7.594E-02  1.224E+00
   1    8    7     5     3    9.9265E+00  1.9221E-01   9.7343E+00  0.000E+00  0.000E+00  0.000E+00  1.04992E+03  6.676E-01  1.497E+01  5.241E-02  1.223E+00
   1    8    6     5     4    9.7343E+00  1.3577E-01   9.5985E+00  0.000E+00  0.000E+00  0.000E+00  1.04691E+03  6.637E-01  1.482E+01  3.706E-02  1.221E+00
   1    9    6     6     1    2.2604E+01  2.4874E-01   2.2355E+01  0.000E+00  0.000E+00  0.000E+00  1.04387E+03  1.146E+00  1.200E+01  6.000E-02  1.382E+00
   1   10    7     6     2    2.2355E+01  2.4828E-01   2.2107E+01  0.000E+00  0.000E+00  0.000E+00  1.03932E+03  1.138E+00  1.200E+01  6.000E-02  1.379E+00
   1   11    7     6     3    2.2107E+01  2.4782E-01   2.1859E+01  0.000E+00  0.000E+00  0.000E+00  1.03477E+03  1.130E+00  1.200E+01  6.000E-02  1.377E+00
   1   12    7     6     4    2.1859E+01  2.4736E-01   2.1612E+01  0.000E+00  0.000E+00  0.000E+00  1.03021E+03  1.123E+00  1.200E+01  6.000E-02  1.374E+00
   1   13    7     6     5    2.1612E+01 -2.1724E-02   2.1633E+01  0.000E+00  0.000E+00  0.000E+00  1.02703E+03  1.119E+00  1.200E+01  2.400E-01 -3.017E-02
   1   14    9     7     1    1.5000E+02  1.3359E+00   1.4866E+02  0.000E+00  0.000E+00  0.000E+00  1.03987E+03  2.288E+00  5.529E+01  5.593E-01  7.962E-01
   1   13    8     7     2    1.4866E+02  1.8220E+00   1.4684E+02  0.000E+00  0.000E+00  0.000E+00  1.03478E+03  2.279E+00  5.526E+01  6.148E-01  9.879E-01
   1   13    7     7     3    1.4684E+02  1.4359E+00   1.4541E+02  0.000E+00  0.000E+00  0.000E+00  1.02969E+03  2.271E+00  5.522E+01  5.585E-01  8.570E-01
   1   13    6     8     1    1.6704E+02  8.6828E-01   1.6617E+02  0.000E+00  0.000E+00  0.000E+00  1.02480E+03  2.930E+00  4.248E+01  4.329E-01  6.685E-01
   1   13    5     8     2    1.6617E+02  1.2715E-01   1.6604E+02  0.000E+00  0.000E+00  0.000E+00  1.01855E+03  2.927E+00  4.244E+01  4.324E-01  9.801E-02
   1   13    4     8     3    1.6604E+02 -2.5995E+00   1.6864E+02  0.000E+00  0.000E+00  0.000E+00  1.01231E+03  2.935E+00  4.255E+01  4.336E+00 -1.998E-01
   1   13    3     8     4    1.6864E+02 -3.7283E+00   1.7237E+02  0.000E+00  0.000E+00  0.000E+00  1.00608E+03  2.956E+00  4.285E+01  4.367E+00 -2.846E-01
   1   13    2     8     5    1.7237E+02 -2.5979E+00   1.7497E+02  0.000E+00  0.000E+00  0.000E+00  9.99851E+02  2.976E+00  4.315E+01  4.397E+00 -1.969E-01
   1   13    1     8     6    1.7497E+02 -1.9903E+00   1.7696E+02  0.000E+00  0.000E+00  0.000E+00  9.94866E+02  2.991E+00  4.336E+01  2.651E+00 -2.502E-01
   1    8    6     9     1    0.0000E+00  0.0000E+00   0.0000E+00  0.000E+00  0.000E+00  0.000E+00  1.07875E+03  0.000E+00  4.000E+00  0.000E+00  1.000E+00
   1    8    5     9     2    0.0000E+00  0.0000E+00   0.0000E+00  0.000E+00  0.000E+00  0.000E+00  1.07825E+03  0.000E+00  4.000E+00  0.000E+00  1.000E+00





UNSATURATED ZONE PACKAGE VOLUMETRIC BUDGET FOR  TIME STEP    30 STRESS PERIOD   13
  ------------------------------------------------------------------------------



     CUMULATIVE VOLUMES      L**3       RATES FOR THIS TIME STEP      L**3/T
     ------------------                 ------------------------

           IN:                                      IN:
           ---                                      ---
        INFILTRATION =   518409594.4951          INFILTRATION =           0.8475

          OUT:                                     OUT:
          ----                                     ----
              UZF ET =   430527512.1627                UZF ET =           0.7500
        UZF RECHARGE =       73224.0000          UZF RECHARGE =       0.0000E+00

            IN - OUT =    87808858.3325              IN - OUT =       9.7500E-02

          STORAGE:                                 STORAGE:
          --------                                 --------
      STORAGE CHANGE =    87808822.8788        STORAGE CHANGE =       9.7500E-02

 PERCENT DISCREPANCY IS DIFFERENCE BETWEEN IN-OUT MINUS CHANGE IN STORAGE
 DIVIDED BY THE AVERAGE OF IN AND OUT TIMES 100

 PERCENT DISCREPANCY =           0.00     PERCENT DISCREPANCY =           0.00






1
  VOLUMETRIC BUDGET FOR AGRICULTURAL FIELDS AT  END OF TIME STEP   30, STRESS PERIOD  13
  ------------------------------------------------------------------------------

     CUMULATIVE VOLUMES      L**3       RATES FOR THIS TIME STEP      L**3/T
     ------------------                 ------------------------

           IN:                                      IN:
           ---                                      ---
               AG WELLS  =   151827360.0000                 AG WELLS  =           0.0000
      DIVERSION SEGMENTS =   339757888.0000        DIVERSION SEGMENTS =           0.0000
           GW IRRIGATION =           0.0000             GW IRRIGATION =           0.0000
           SW IRRIGATION =           0.0000             SW IRRIGATION =           0.0000
        SYSTEM LOSSES GW =           0.0000          SYSTEM LOSSES GW =           0.0000
        SYSTEM LOSSES SW =           0.0000          SYSTEM LOSSES SW =           0.0000

                TOTAL IN =   491585248.0000                  TOTAL IN =           0.0000

          OUT:                                     OUT:
          ----                                     ----
               AG WELLS  =           0.0000                 AG WELLS  =           0.0000
      DIVERSION SEGMENTS =           0.0000        DIVERSION SEGMENTS =           0.0000
           GW IRRIGATION =   151827360.0000             GW IRRIGATION =           0.0000
           SW IRRIGATION =   339764480.0000             SW IRRIGATION =           0.0000
        SYSTEM LOSSES GW =           0.0000          SYSTEM LOSSES GW =           0.0000
        SYSTEM LOSSES SW =           0.0000          SYSTEM LOSSES SW =           0.0000

               TOTAL OUT =   491591840.0000                 TOTAL OUT =           0.0000

                IN - OUT =       -6592.0000                  IN - OUT =           0.0000

     PERCENT DISCREPANCY =          -0.00         PERCENT DISCREPANCY =           0.00



1
  VOLUMETRIC BUDGET FOR ENTIRE MODEL AT END OF TIME STEP   30, STRESS PERIOD  13
  ------------------------------------------------------------------------------

     CUMULATIVE VOLUMES      L**3       RATES FOR THIS TIME STEP      L**3/T
     ------------------                 ------------------------

           IN:                                      IN:
           ---                                      ---
             STORAGE     =   249260032.0000               STORAGE     =           3.0103
       CONSTANT HEAD     =           0.0000         CONSTANT HEAD     =           0.0000
     HEAD DEP BOUNDS     =     9042637.0000       HEAD DEP BOUNDS     =           0.2858
      STREAM LEAKAGE     =   378983072.0000        STREAM LEAKAGE     =          11.2273
        UZF RECHARGE     =       73223.9531          UZF RECHARGE     =           0.0000
               GW ET     =           0.0000                 GW ET     =           0.0000
     SURFACE LEAKAGE     =           0.0000       SURFACE LEAKAGE     =           0.0000
           AG WELLS      =           0.0000             AG WELLS      =           0.0000

                TOTAL IN =   637358976.0000                  TOTAL IN =          14.5234

          OUT:                                     OUT:
          ----                                     ----
             STORAGE     =   132077968.0000               STORAGE     =           3.2962
       CONSTANT HEAD     =           0.0000         CONSTANT HEAD     =           0.0000
     HEAD DEP BOUNDS     =     9204982.0000       HEAD DEP BOUNDS     =           0.2894
      STREAM LEAKAGE     =   342701056.0000        STREAM LEAKAGE     =          10.9378
        UZF RECHARGE     =           0.0000          UZF RECHARGE     =           0.0000
               GW ET     =     1552216.2500                 GW ET     =           0.0000
     SURFACE LEAKAGE     =           0.0000       SURFACE LEAKAGE     =           0.0000
           AG WELLS      =   151827360.0000             AG WELLS      =           0.0000

               TOTAL OUT =   637363584.0000                 TOTAL OUT =          14.5235

                IN - OUT =       -4608.0000                  IN - OUT =      -7.7248E-05

     PERCENT DISCREPANCY =          -0.00         PERCENT DISCREPANCY =          -0.00






         TIME SUMMARY AT END OF TIME STEP   30 IN STRESS PERIOD   13
                    SECONDS     MINUTES      HOURS       DAYS        YEARS
                    -----------------------------------------------------------
   TIME STEP LENGTH  87667.      1461.1      24.352      1.0147     2.77799E-03
 STRESS PERIOD TIME 2.63000E+06  43833.      730.56      30.440     8.33397E-02
         TOTAL TIME 3.16463E+07 5.27439E+05  8790.6      366.28      1.0028    
1
1
                            STRESS PERIOD NO.   14, LENGTH =   2630000.    
                            -----------------------------------------------

                              NUMBER OF TIME STEPS =    30

                               MULTIPLIER FOR DELT =     1.000

                            INITIAL TIME STEP SIZE =   87666.66    

 REUSING NON-PARAMETER GHB CELLS FROM LAST STRESS PERIOD

      2 GHB CELLS

 REUSING STREAM SEGMENT DATA FROM LAST STRESS PERIOD



            AREAL INFILTRATION RATE
 READING ON UNIT   19 WITH FORMAT: (FREE)              

            1           2           3           4           5           6           7           8           9          10
 ........................................................................................................................
   1   1.0000E-10  2.0000E-10   0.000       0.000       0.000       0.000       0.000       0.000       0.000       0.000    
   2   2.0000E-10  1.0000E-10  2.0000E-10   0.000       0.000      8.0000E-10  8.0000E-10  5.0000E-10   0.000       0.000    
   3    0.000      5.0000E-10  1.0000E-10  1.0000E-10  8.0000E-10  8.0000E-10  5.0000E-10  5.0000E-10   0.000       0.000    
   4   8.0000E-10  5.0000E-10  1.0000E-10  1.0000E-10  1.0000E-10  1.0000E-10  1.0000E-10  1.0000E-10  2.0000E-10   0.000    
   5   8.0000E-10  5.0000E-10  1.0000E-10  1.0000E-10  1.0000E-10  1.0000E-10  1.0000E-10  1.0000E-10  1.0000E-10  1.0000E-10
   6   8.0000E-10  5.0000E-10  5.0000E-10  2.0000E-10  2.0000E-10  1.0000E-10  1.0000E-10  1.0000E-10  1.0000E-10  5.0000E-10
   7   8.0000E-10  5.0000E-10  5.0000E-10  2.0000E-10  2.0000E-10  1.0000E-10  1.0000E-10  2.0000E-10  2.0000E-10   0.000    
   8    0.000      5.0000E-10  5.0000E-10  2.0000E-10  2.0000E-10  1.0000E-10  1.0000E-10  2.0000E-10  5.0000E-10   0.000    
   9    0.000      5.0000E-10  5.0000E-10  2.0000E-10  2.0000E-10  1.0000E-10  1.0000E-10  2.0000E-10  5.0000E-10   0.000    
  10    0.000      5.0000E-10  5.0000E-10  2.0000E-10  2.0000E-10  1.0000E-10  1.0000E-10  2.0000E-10  5.0000E-10  8.0000E-10
  11    0.000      1.0000E-10  1.0000E-10  1.0000E-10  1.0000E-10  1.0000E-10  1.0000E-10  2.0000E-10  5.0000E-10   0.000    
  12   1.0000E-10  1.0000E-10  1.0000E-10  1.0000E-10  1.0000E-10  1.0000E-10  1.0000E-10  1.0000E-10  2.0000E-10   0.000    
  13   1.0000E-10  1.0000E-10  2.0000E-10  2.0000E-10  2.0000E-10  2.0000E-10  2.0000E-10  1.0000E-10  1.0000E-10   0.000    
  14    0.000      2.0000E-10  5.0000E-10  5.0000E-10  5.0000E-10  5.0000E-10  5.0000E-10  2.0000E-10  1.0000E-10   0.000    
  15    0.000       0.000      8.0000E-10  8.0000E-10  8.0000E-10  8.0000E-10   0.000       0.000       0.000       0.000    

                  ET RATE =  5.000000E-10

 USING ET EXTINCTION DEPTH FROM PREVIOUS STRESS PERIOD. CURRENT PERIOD IS:      14

 USING EXTINCTION WATER CONTENT FROM PREVIOUS STRESS PERIOD. CURRENT PERIOD IS:      14

 USING AIR ENTRY PRESSURE FROM PREVIOUS STRESS PERIOD. CURRENT PERIOD IS:      14

 USING ROOT PRESSURE HEAD FROM PREVIOUS STRESS PERIOD. CURRENT PERIOD IS:      14

 USING ROOT ACTIVITY FROM PREVIOUS STRESS PERIOD. CURRENT PERIOD IS:      14

 PROCESSING AG STRESS PERIOD DATA

 READING AG STRESS PERIOD DATA

 READING IRRIGATION SEGMENT

 READING IRRIGATION WELL

 READING SUPPLEMENTAL WELL

 END PROCESSING AG STRESS PERIOD DATA OPTIONS
 
 SOLVING FOR HEAD 
                                                   Max.-Head-Change                         Max.-Flux-Residual
  Residual-Control   Outer-Iter.   Inner-Iter.     Column Row Layer    Maximum-Head-Change  Column Row Layer    Maximum-Flux-Residual          L2-NORM 
          0                 1           2             4    7     1       0.8133541181E-02       4    7    1         0.4274855814E+00      0.1002618467E+01
          0                 2           2             4    7     1      -0.7911731901E-03       4    7    1        -0.4274865429E-01      0.1002488103E+00
          0                 3           1             4    7     1       0.5387594833E-04       4    7    1         0.2992406183E-02      0.7016233960E-02

    ------------------------------------------------
       NWT REQUIRED            3 OUTER ITERATIONS 
       AND A TOTAL OF          5 INNER ITERATIONS.
    ------------------------------------------------

 NO OUTPUT CONTROL FOR STRESS PERIOD   14   TIME STEP    1
 
 SOLVING FOR HEAD 
                                                   Max.-Head-Change                         Max.-Flux-Residual
  Residual-Control   Outer-Iter.   Inner-Iter.     Column Row Layer    Maximum-Head-Change  Column Row Layer    Maximum-Flux-Residual          L2-NORM 
          0                 1           2             4    7     1       0.8041323307E-02       4    7    1         0.4226181970E+00      0.1003774569E+01
          0                 2           2             4    7     1      -0.7822028718E-03       4    7    1        -0.4226191360E-01      0.1003299161E+00
          0                 3           1             4    7     1       0.5326510243E-04       4    7    1         0.2958334318E-02      0.7018851770E-02

    ------------------------------------------------
       NWT REQUIRED            3 OUTER ITERATIONS 
       AND A TOTAL OF          5 INNER ITERATIONS.
    ------------------------------------------------

 NO OUTPUT CONTROL FOR STRESS PERIOD   14   TIME STEP    2
 
 SOLVING FOR HEAD 
                                                   Max.-Head-Change                         Max.-Flux-Residual
  Residual-Control   Outer-Iter.   Inner-Iter.     Column Row Layer    Maximum-Head-Change  Column Row Layer    Maximum-Flux-Residual          L2-NORM 
          0                 1           2             4    7     1       0.7950455980E-02       4    7    1         0.4178220277E+00      0.9935850402E+00
          0                 2           2             4    7     1      -0.7733639259E-03       4    7    1        -0.4178229443E-01      0.9931676059E-01
          0                 3           1             4    7     1       0.5266320372E-04       4    7    1         0.2924761003E-02      0.6948406234E-02

    ------------------------------------------------
       NWT REQUIRED            3 OUTER ITERATIONS 
       AND A TOTAL OF          5 INNER ITERATIONS.
    ------------------------------------------------

 NO OUTPUT CONTROL FOR STRESS PERIOD   14   TIME STEP    3
 
 SOLVING FOR HEAD 
                                                   Max.-Head-Change                         Max.-Flux-Residual
  Residual-Control   Outer-Iter.   Inner-Iter.     Column Row Layer    Maximum-Head-Change  Column Row Layer    Maximum-Flux-Residual          L2-NORM 
          0                 1           2             4    7     1       0.7860922210E-02       4    7    1         0.4130958820E+00      0.9836606441E+00
          0                 2           2             4    7     1      -0.7646546995E-03       4    7    1        -0.4130967772E-01      0.9832901199E-01
          0                 3           1             4    7     1       0.5207013813E-04       4    7    1         0.2891677837E-02      0.6879687434E-02

    ------------------------------------------------
       NWT REQUIRED            3 OUTER ITERATIONS 
       AND A TOTAL OF          5 INNER ITERATIONS.
    ------------------------------------------------

 NO OUTPUT CONTROL FOR STRESS PERIOD   14   TIME STEP    4
 
 SOLVING FOR HEAD 
                                                   Max.-Head-Change                         Max.-Flux-Residual
  Residual-Control   Outer-Iter.   Inner-Iter.     Column Row Layer    Maximum-Head-Change  Column Row Layer    Maximum-Flux-Residual          L2-NORM 
          0                 1           2             4    7     1       0.7772695597E-02       4    7    1         0.4084388795E+00      0.9739709026E+00
          0                 2           2             4    7     1      -0.7560726246E-03       4    7    1        -0.4084397536E-01      0.9736444214E-01
          0                 3           1             4    7     1       0.5148573076E-04       4    7    1         0.2859078675E-02      0.6812566820E-02

    ------------------------------------------------
       NWT REQUIRED            3 OUTER ITERATIONS 
       AND A TOTAL OF          5 INNER ITERATIONS.
    ------------------------------------------------

 NO OUTPUT CONTROL FOR STRESS PERIOD   14   TIME STEP    5
 
 SOLVING FOR HEAD 
                                                   Max.-Head-Change                         Max.-Flux-Residual
  Residual-Control   Outer-Iter.   Inner-Iter.     Column Row Layer    Maximum-Head-Change  Column Row Layer    Maximum-Flux-Residual          L2-NORM 
          0                 1           2             4    7     1       0.7686021142E-02       4    7    1         0.4038644312E+00      0.9645032384E+00
          0                 2           2             4    7     1      -0.7476415335E-03       4    7    1        -0.4038652848E-01      0.9642124125E-01
          0                 3           1             4    7     1       0.5091160519E-04       4    7    1         0.2827057415E-02      0.6746799032E-02

    ------------------------------------------------
       NWT REQUIRED            3 OUTER ITERATIONS 
       AND A TOTAL OF          5 INNER ITERATIONS.
    ------------------------------------------------

 NO OUTPUT CONTROL FOR STRESS PERIOD   14   TIME STEP    6
 
 SOLVING FOR HEAD 
                                                   Max.-Head-Change                         Max.-Flux-Residual
  Residual-Control   Outer-Iter.   Inner-Iter.     Column Row Layer    Maximum-Head-Change  Column Row Layer    Maximum-Flux-Residual          L2-NORM 
          0                 1           2             4    7     1       0.7600861092E-02       4    7    1         0.3993704603E+00      0.9552529532E+00
          0                 2           2             4    7     1      -0.7393577526E-03       4    7    1        -0.3993712939E-01      0.9549669214E-01
          0                 3           1             4    7     1       0.5034751030E-04       4    7    1         0.2795599451E-02      0.6682574276E-02

    ------------------------------------------------
       NWT REQUIRED            3 OUTER ITERATIONS 
       AND A TOTAL OF          5 INNER ITERATIONS.
    ------------------------------------------------

 NO OUTPUT CONTROL FOR STRESS PERIOD   14   TIME STEP    7
 
 SOLVING FOR HEAD 
                                                   Max.-Head-Change                         Max.-Flux-Residual
  Residual-Control   Outer-Iter.   Inner-Iter.     Column Row Layer    Maximum-Head-Change  Column Row Layer    Maximum-Flux-Residual          L2-NORM 
          0                 1           2             4    7     1       0.7516648584E-02       4    7    1         0.3949254483E+00      0.9461912416E+00
          0                 2           2             4    7     1      -0.7311661433E-03       4    7    1        -0.3949262625E-01      0.9459600902E-01
          0                 3           1             4    7     1       0.4978969270E-04       4    7    1         0.2764484257E-02      0.6619572822E-02

    ------------------------------------------------
       NWT REQUIRED            3 OUTER ITERATIONS 
       AND A TOTAL OF          5 INNER ITERATIONS.
    ------------------------------------------------

 NO OUTPUT CONTROL FOR STRESS PERIOD   14   TIME STEP    8
 
 SOLVING FOR HEAD 
                                                   Max.-Head-Change                         Max.-Flux-Residual
  Residual-Control   Outer-Iter.   Inner-Iter.     Column Row Layer    Maximum-Head-Change  Column Row Layer    Maximum-Flux-Residual          L2-NORM 
          0                 1           2             4    7     1       0.7433906889E-02       4    7    1         0.3905591263E+00      0.9373037069E+00
          0                 2           2             4    7     1      -0.7231176045E-03       4    7    1        -0.3905599215E-01      0.9370969320E-01
          0                 3           1             4    7     1       0.4924161728E-04       4    7    1         0.2733919873E-02      0.6557795424E-02

    ------------------------------------------------
       NWT REQUIRED            3 OUTER ITERATIONS 
       AND A TOTAL OF          5 INNER ITERATIONS.
    ------------------------------------------------

 NO OUTPUT CONTROL FOR STRESS PERIOD   14   TIME STEP    9
 
 SOLVING FOR HEAD 
                                                   Max.-Head-Change                         Max.-Flux-Residual
  Residual-Control   Outer-Iter.   Inner-Iter.     Column Row Layer    Maximum-Head-Change  Column Row Layer    Maximum-Flux-Residual          L2-NORM 
          0                 1           2             4    7     1       0.7352600455E-02       4    7    1         0.3862690640E+00      0.9285873446E+00
          0                 2           2             4    7     1      -0.7152086786E-03       4    7    1        -0.3862698408E-01      0.9284015349E-01
          0                 3           1             4    7     1       0.4870304974E-04       4    7    1         0.2703889335E-02      0.6496980644E-02

    ------------------------------------------------
       NWT REQUIRED            3 OUTER ITERATIONS 
       AND A TOTAL OF          5 INNER ITERATIONS.
    ------------------------------------------------

 NO OUTPUT CONTROL FOR STRESS PERIOD   14   TIME STEP   10
 
 SOLVING FOR HEAD 
                                                   Max.-Head-Change                         Max.-Flux-Residual
  Residual-Control   Outer-Iter.   Inner-Iter.     Column Row Layer    Maximum-Head-Change  Column Row Layer    Maximum-Flux-Residual          L2-NORM 
          0                 1           2             4    7     1       0.7272164851E-02       4    7    1         0.3820238558E+00      0.9200362844E+00
          0                 2           2             4    7     1      -0.7073844608E-03       4    7    1        -0.3820246145E-01      0.9198703431E-01
          0                 3           1             4    7     1       0.4817024921E-04       4    7    1         0.2674172736E-02      0.6438189590E-02

    ------------------------------------------------
       NWT REQUIRED            3 OUTER ITERATIONS 
       AND A TOTAL OF          5 INNER ITERATIONS.
    ------------------------------------------------

 NO OUTPUT CONTROL FOR STRESS PERIOD   14   TIME STEP   11
 
 SOLVING FOR HEAD 
                                                   Max.-Head-Change                         Max.-Flux-Residual
  Residual-Control   Outer-Iter.   Inner-Iter.     Column Row Layer    Maximum-Head-Change  Column Row Layer    Maximum-Flux-Residual          L2-NORM 
          0                 1           2             4    7     1       0.7193125547E-02       4    7    1         0.3778533614E+00      0.9116255940E+00
          0                 2           2             4    7     1      -0.6996960661E-03       4    7    1        -0.3778541028E-01      0.9114764756E-01
          0                 3           1             4    7     1       0.4764669859E-04       4    7    1         0.2644979176E-02      0.6379011824E-02

    ------------------------------------------------
       NWT REQUIRED            3 OUTER ITERATIONS 
       AND A TOTAL OF          5 INNER ITERATIONS.
    ------------------------------------------------

 NO OUTPUT CONTROL FOR STRESS PERIOD   14   TIME STEP   12
 
 SOLVING FOR HEAD 
                                                   Max.-Head-Change                         Max.-Flux-Residual
  Residual-Control   Outer-Iter.   Inner-Iter.     Column Row Layer    Maximum-Head-Change  Column Row Layer    Maximum-Flux-Residual          L2-NORM 
          0                 1           2             4    7     1       0.7115451281E-02       4    7    1         0.3737552634E+00      0.9033690205E+00
          0                 2           2             4    7     1      -0.6928481851E-03       4    7    1        -0.3742678019E-01      0.9033944587E-01
          0                 3           1             4    7     1       0.4718038219E-04       4    7    1         0.2619874983E-02      0.6322548709E-02

    ------------------------------------------------
       NWT REQUIRED            3 OUTER ITERATIONS 
       AND A TOTAL OF          5 INNER ITERATIONS.
    ------------------------------------------------

 NO OUTPUT CONTROL FOR STRESS PERIOD   14   TIME STEP   13
 
 SOLVING FOR HEAD 
                                                   Max.-Head-Change                         Max.-Flux-Residual
  Residual-Control   Outer-Iter.   Inner-Iter.     Column Row Layer    Maximum-Head-Change  Column Row Layer    Maximum-Flux-Residual          L2-NORM 
          0                 1           2             4    7     1       0.7036195338E-02       4    7    1         0.3696753962E+00      0.8952454524E+00
          0                 2           2             4    7     1      -0.6844311064E-03       4    7    1        -0.3696761877E-01      0.8951234439E-01
          0                 3           1             4    7     1       0.4660721064E-04       4    7    1         0.2587733693E-02      0.6264744036E-02

    ------------------------------------------------
       NWT REQUIRED            3 OUTER ITERATIONS 
       AND A TOTAL OF          5 INNER ITERATIONS.
    ------------------------------------------------

 NO OUTPUT CONTROL FOR STRESS PERIOD   14   TIME STEP   14
 
 SOLVING FOR HEAD 
                                                   Max.-Head-Change                         Max.-Flux-Residual
  Residual-Control   Outer-Iter.   Inner-Iter.     Column Row Layer    Maximum-Head-Change  Column Row Layer    Maximum-Flux-Residual          L2-NORM 
          0                 1           2             4    7     1       0.6958866983E-02       4    7    1         0.3655890100E+00      0.8872221182E+00
          0                 2           2             4    7     1      -0.6769091352E-03       4    7    1        -0.3655897807E-01      0.8871111091E-01
          0                 3           1             4    7     1       0.4609499217E-04       4    7    1         0.2559128829E-02      0.6208765823E-02

    ------------------------------------------------
       NWT REQUIRED            3 OUTER ITERATIONS 
       AND A TOTAL OF          5 INNER ITERATIONS.
    ------------------------------------------------

 NO OUTPUT CONTROL FOR STRESS PERIOD   14   TIME STEP   15
 
 SOLVING FOR HEAD 
                                                   Max.-Head-Change                         Max.-Flux-Residual
  Residual-Control   Outer-Iter.   Inner-Iter.     Column Row Layer    Maximum-Head-Change  Column Row Layer    Maximum-Flux-Residual          L2-NORM 
          0                 1           2             4    7     1       0.6882980740E-02       4    7    1         0.3615796243E+00      0.8793267043E+00
          0                 2           2             4    7     1      -0.6695274431E-03       4    7    1        -0.3615803746E-01      0.8792261986E-01
          0                 3           1             4    7     1       0.4559232654E-04       4    7    1         0.2531062999E-02      0.6153626808E-02

    ------------------------------------------------
       NWT REQUIRED            3 OUTER ITERATIONS 
       AND A TOTAL OF          5 INNER ITERATIONS.
    ------------------------------------------------

 NO OUTPUT CONTROL FOR STRESS PERIOD   14   TIME STEP   16
 
 SOLVING FOR HEAD 
                                                   Max.-Head-Change                         Max.-Flux-Residual
  Residual-Control   Outer-Iter.   Inner-Iter.     Column Row Layer    Maximum-Head-Change  Column Row Layer    Maximum-Flux-Residual          L2-NORM 
          0                 1           2             4    7     1       0.6808501194E-02       4    7    1         0.3576450102E+00      0.8715716462E+00
          0                 2           2             4    7     1      -0.6622825855E-03       4    7    1        -0.3576457410E-01      0.8714799743E-01
          0                 3           1             4    7     1       0.4509897922E-04       4    7    1         0.2503520577E-02      0.6099544933E-02

    ------------------------------------------------
       NWT REQUIRED            3 OUTER ITERATIONS 
       AND A TOTAL OF          5 INNER ITERATIONS.
    ------------------------------------------------

 NO OUTPUT CONTROL FOR STRESS PERIOD   14   TIME STEP   17
 
 SOLVING FOR HEAD 
                                                   Max.-Head-Change                         Max.-Flux-Residual
  Residual-Control   Outer-Iter.   Inner-Iter.     Column Row Layer    Maximum-Head-Change  Column Row Layer    Maximum-Flux-Residual          L2-NORM 
          0                 1           2             4    7     1       0.6734845894E-02       4    7    1         0.3537537660E+00      0.8639265283E+00
          0                 2           2             4    7     1      -0.6551179053E-03       4    7    1        -0.3537544777E-01      0.8638425966E-01
          0                 3           1             4    7     1       0.4461109123E-04       4    7    1         0.2476281744E-02      0.6046165206E-02

    ------------------------------------------------
       NWT REQUIRED            3 OUTER ITERATIONS 
       AND A TOTAL OF          5 INNER ITERATIONS.
    ------------------------------------------------

 NO OUTPUT CONTROL FOR STRESS PERIOD   14   TIME STEP   18
 
 SOLVING FOR HEAD 
                                                   Max.-Head-Change                         Max.-Flux-Residual
  Residual-Control   Outer-Iter.   Inner-Iter.     Column Row Layer    Maximum-Head-Change  Column Row Layer    Maximum-Flux-Residual          L2-NORM 
          0                 1           2             4    7     1       0.6662540104E-02       4    7    1         0.3499348232E+00      0.8563862021E+00
          0                 2           2             4    7     1      -0.6480844970E-03       4    7    1        -0.3499355168E-01      0.8563086040E-01
          0                 3           1             4    7     1       0.4413214216E-04       4    7    1         0.2449549025E-02      0.5993421982E-02

    ------------------------------------------------
       NWT REQUIRED            3 OUTER ITERATIONS 
       AND A TOTAL OF          5 INNER ITERATIONS.
    ------------------------------------------------

 NO OUTPUT CONTROL FOR STRESS PERIOD   14   TIME STEP   19
 
 SOLVING FOR HEAD 
                                                   Max.-Head-Change                         Max.-Flux-Residual
  Residual-Control   Outer-Iter.   Inner-Iter.     Column Row Layer    Maximum-Head-Change  Column Row Layer    Maximum-Flux-Residual          L2-NORM 
          0                 1           2             4    7     1       0.6591549699E-02       4    7    1         0.3461858508E+00      0.8489631151E+00
          0                 2           2             4    7     1      -0.6411790397E-03       4    7    1        -0.3461865264E-01      0.8488882238E-01
          0                 3           1             4    7     1       0.4366190645E-04       4    7    1         0.2423306090E-02      0.5941566198E-02

    ------------------------------------------------
       NWT REQUIRED            3 OUTER ITERATIONS 
       AND A TOTAL OF          5 INNER ITERATIONS.
    ------------------------------------------------

 NO OUTPUT CONTROL FOR STRESS PERIOD   14   TIME STEP   20
 
 SOLVING FOR HEAD 
                                                   Max.-Head-Change                         Max.-Flux-Residual
  Residual-Control   Outer-Iter.   Inner-Iter.     Column Row Layer    Maximum-Head-Change  Column Row Layer    Maximum-Flux-Residual          L2-NORM 
          0                 1           2             4    7     1       0.6521570892E-02       4    7    1         0.3424902960E+00      0.8416575415E+00
          0                 2           2             4    7     1      -0.6343719851E-03       4    7    1        -0.3424909548E-01      0.8415929768E-01
          0                 3           1             4    7     1       0.4319837167E-04       4    7    1         0.2397437094E-02      0.5890560701E-02

    ------------------------------------------------
       NWT REQUIRED            3 OUTER ITERATIONS 
       AND A TOTAL OF          5 INNER ITERATIONS.
    ------------------------------------------------

 NO OUTPUT CONTROL FOR STRESS PERIOD   14   TIME STEP   21
 
 SOLVING FOR HEAD 
                                                   Max.-Head-Change                         Max.-Flux-Residual
  Residual-Control   Outer-Iter.   Inner-Iter.     Column Row Layer    Maximum-Head-Change  Column Row Layer    Maximum-Flux-Residual          L2-NORM 
          0                 1           2             4    7     1       0.6452853924E-02       4    7    1         0.3388619747E+00      0.8344600698E+00
          0                 2           2             4    7     1      -0.6276876734E-03       4    7    1        -0.3388626166E-01      0.8344001875E-01
          0                 3           1             4    7     1       0.4274319524E-04       4    7    1         0.2372038748E-02      0.5840241906E-02

    ------------------------------------------------
       NWT REQUIRED            3 OUTER ITERATIONS 
       AND A TOTAL OF          5 INNER ITERATIONS.
    ------------------------------------------------

 NO OUTPUT CONTROL FOR STRESS PERIOD   14   TIME STEP   22
 
 SOLVING FOR HEAD 
                                                   Max.-Head-Change                         Max.-Flux-Residual
  Residual-Control   Outer-Iter.   Inner-Iter.     Column Row Layer    Maximum-Head-Change  Column Row Layer    Maximum-Flux-Residual          L2-NORM 
          0                 1           2             4    7     1       0.6385089969E-02       4    7    1         0.3352842943E+00      0.8273500470E+00
          0                 2           2             4    7     1      -0.6210960644E-03       4    7    1        -0.3352849201E-01      0.8272859185E-01
          0                 3           1             4    7     1       0.4229433089E-04       4    7    1         0.2346994857E-02      0.5790536074E-02

    ------------------------------------------------
       NWT REQUIRED            3 OUTER ITERATIONS 
       AND A TOTAL OF          5 INNER ITERATIONS.
    ------------------------------------------------

 NO OUTPUT CONTROL FOR STRESS PERIOD   14   TIME STEP   23
 
 SOLVING FOR HEAD 
                                                   Max.-Head-Change                         Max.-Flux-Residual
  Residual-Control   Outer-Iter.   Inner-Iter.     Column Row Layer    Maximum-Head-Change  Column Row Layer    Maximum-Flux-Residual          L2-NORM 
          0                 1           2             4    7     1       0.6318255867E-02       4    7    1         0.3317560261E+00      0.8203462862E+00
          0                 2           2             4    7     1      -0.6145949054E-03       4    7    1        -0.3317566361E-01      0.8202948095E-01
          0                 3           1             4    7     1       0.4185162667E-04       4    7    1         0.2322296882E-02      0.5741553235E-02

    ------------------------------------------------
       NWT REQUIRED            3 OUTER ITERATIONS 
       AND A TOTAL OF          5 INNER ITERATIONS.
    ------------------------------------------------

 NO OUTPUT CONTROL FOR STRESS PERIOD   14   TIME STEP   24
 
 SOLVING FOR HEAD 
                                                   Max.-Head-Change                         Max.-Flux-Residual
  Residual-Control   Outer-Iter.   Inner-Iter.     Column Row Layer    Maximum-Head-Change  Column Row Layer    Maximum-Flux-Residual          L2-NORM 
          0                 1           2             4    7     1       0.6252881619E-02       4    7    1         0.3283055378E+00      0.8134516801E+00
          0                 2           2             4    7     1      -0.6082357523E-03       4    7    1        -0.3283061331E-01      0.8134036772E-01
          0                 3           1             4    7     1       0.4141859221E-04       4    7    1         0.2298143368E-02      0.5693425215E-02

    ------------------------------------------------
       NWT REQUIRED            3 OUTER ITERATIONS 
       AND A TOTAL OF          5 INNER ITERATIONS.
    ------------------------------------------------

 NO OUTPUT CONTROL FOR STRESS PERIOD   14   TIME STEP   25
 
 SOLVING FOR HEAD 
                                                   Max.-Head-Change                         Max.-Flux-Residual
  Residual-Control   Outer-Iter.   Inner-Iter.     Column Row Layer    Maximum-Head-Change  Column Row Layer    Maximum-Flux-Residual          L2-NORM 
          0                 1           2             4    7     1       0.6188105969E-02       4    7    1         0.3248863881E+00      0.8066417282E+00
          0                 2           2             4    7     1      -0.6019348260E-03       4    7    1        -0.3248869684E-01      0.8065974153E-01
          0                 3           1             4    7     1       0.4098952251E-04       4    7    1         0.2274209227E-02      0.5645771368E-02

    ------------------------------------------------
       NWT REQUIRED            3 OUTER ITERATIONS 
       AND A TOTAL OF          5 INNER ITERATIONS.
    ------------------------------------------------

 NO OUTPUT CONTROL FOR STRESS PERIOD   14   TIME STEP   26
 
 SOLVING FOR HEAD 
                                                   Max.-Head-Change                         Max.-Flux-Residual
  Residual-Control   Outer-Iter.   Inner-Iter.     Column Row Layer    Maximum-Head-Change  Column Row Layer    Maximum-Flux-Residual          L2-NORM 
          0                 1           2             4    7     1       0.6124472592E-02       4    7    1         0.3215278436E+00      0.7999259491E+00
          0                 2           2             4    7     1      -0.5957450121E-03       4    7    1        -0.3215284097E-01      0.7998842156E-01
          0                 3           1             4    7     1       0.4056801901E-04       4    7    1         0.2250699296E-02      0.5598822600E-02

    ------------------------------------------------
       NWT REQUIRED            3 OUTER ITERATIONS 
       AND A TOTAL OF          5 INNER ITERATIONS.
    ------------------------------------------------

 NO OUTPUT CONTROL FOR STRESS PERIOD   14   TIME STEP   27
 
 SOLVING FOR HEAD 
                                                   Max.-Head-Change                         Max.-Flux-Residual
  Residual-Control   Outer-Iter.   Inner-Iter.     Column Row Layer    Maximum-Head-Change  Column Row Layer    Maximum-Flux-Residual          L2-NORM 
          0                 1           2             4    7     1       0.6061946556E-02       4    7    1         0.3182285247E+00      0.7933032775E+00
          0                 2           2             4    7     1      -0.5896629137E-03       4    7    1        -0.3182290771E-01      0.7932645901E-01
          0                 3           1             4    7     1       0.4015385143E-04       4    7    1         0.2227603987E-02      0.5552477647E-02

    ------------------------------------------------
       NWT REQUIRED            3 OUTER ITERATIONS 
       AND A TOTAL OF          5 INNER ITERATIONS.
    ------------------------------------------------

 NO OUTPUT CONTROL FOR STRESS PERIOD   14   TIME STEP   28
 
 SOLVING FOR HEAD 
                                                   Max.-Head-Change                         Max.-Flux-Residual
  Residual-Control   Outer-Iter.   Inner-Iter.     Column Row Layer    Maximum-Head-Change  Column Row Layer    Maximum-Flux-Residual          L2-NORM 
          0                 1           2             4    7     1       0.6000228475E-02       4    7    1         0.3149718349E+00      0.7867685029E+00
          0                 2           2             4    7     1      -0.5836594073E-03       4    7    1        -0.3149723737E-01      0.7867321153E-01
          0                 3           1             4    7     1       0.3974503504E-04       4    7    1         0.2204807062E-02      0.5506805677E-02

    ------------------------------------------------
       NWT REQUIRED            3 OUTER ITERATIONS 
       AND A TOTAL OF          5 INNER ITERATIONS.
    ------------------------------------------------

 NO OUTPUT CONTROL FOR STRESS PERIOD   14   TIME STEP   29
 
 SOLVING FOR HEAD 
                                                   Max.-Head-Change                         Max.-Flux-Residual
  Residual-Control   Outer-Iter.   Inner-Iter.     Column Row Layer    Maximum-Head-Change  Column Row Layer    Maximum-Flux-Residual          L2-NORM 
          0                 1           2             4    7     1       0.5939574600E-02       4    7    1         0.3117718216E+00      0.7803252135E+00
          0                 2           2             4    7     1      -0.5777594204E-03       4    7    1        -0.3117723475E-01      0.7802904031E-01
          0                 3           1             4    7     1       0.3934326796E-04       4    7    1         0.2182406883E-02      0.5461700644E-02

    ------------------------------------------------
       NWT REQUIRED            3 OUTER ITERATIONS 
       AND A TOTAL OF          5 INNER ITERATIONS.
    ------------------------------------------------

 NO OUTPUT CONTROL FOR STRESS PERIOD   14   TIME STEP   30



 STREAM LISTING     PERIOD     14   STEP       30

 LAYER ROW COL. STREAM  RCH.  FLOW INTO     FLOW TO   FLOW OUT OF   OVRLND.     DIRECT     STREAM       STREAM     STREAM     STREAM   STREAMBED  STREAMBED
                SEG.NO.  NO.  STRM. RCH.    AQUIFER    STRM. RCH.    RUNOFF     PRECIP       ET          HEAD       DEPTH      WIDTH   CONDCTNC.   GRADIENT

   1    1    1     1     1    1.4250E+01  1.8169E-01   1.4069E+01  0.000E+00  0.000E+00  0.000E+00  1.09404E+03  9.953E-01  1.011E+01  4.548E-02  1.332E+00
   1    2    2     1     2    1.4069E+01  2.7999E-01   1.3789E+01  0.000E+00  0.000E+00  0.000E+00  1.08905E+03  9.906E-01  1.002E+01  7.016E-02  1.330E+00
   1    3    3     1     3    1.3789E+01  2.3745E-01   1.3551E+01  0.000E+00  0.000E+00  0.000E+00  1.08340E+03  9.853E-01  9.930E+00  5.958E-02  1.328E+00
   1    3    4     1     4    1.3551E+01  2.1755E-01   1.3334E+01  0.000E+00  0.000E+00  0.000E+00  1.07839E+03  9.805E-01  9.848E+00  5.465E-02  1.327E+00
   1    4    5     2     1    1.1334E+01  2.9214E-01   1.1041E+01  0.000E+00  0.000E+00  0.000E+00  1.07268E+03  7.454E-01  1.200E+01  7.800E-02  1.248E+00
   1    5    6     2     2    1.1041E+01  2.2410E-01   1.0817E+01  0.000E+00  0.000E+00  0.000E+00  1.06724E+03  7.350E-01  1.200E+01  6.000E-02  1.245E+00
   1    6    6     2     3    1.0817E+01  2.2356E-01   1.0594E+01  0.000E+00  0.000E+00  0.000E+00  1.06252E+03  7.260E-01  1.200E+01  6.000E-02  1.242E+00
   1    7    6     2     4    1.0594E+01  2.2301E-01   1.0371E+01  0.000E+00  0.000E+00  0.000E+00  1.05779E+03  7.168E-01  1.200E+01  6.000E-02  1.239E+00
   1    8    6     2     5    1.0371E+01  2.2246E-01   1.0148E+01  0.000E+00  0.000E+00  0.000E+00  1.05307E+03  7.077E-01  1.200E+01  6.000E-02  1.236E+00
   1    3    5     3     1    2.0000E+00  2.8252E-01   1.7175E+00  0.000E+00  0.000E+00  0.000E+00  1.07555E+03  1.909E+00  9.636E+00  7.227E-02  1.955E+00
   1    3    6     3     2    1.7175E+00  2.4905E-01   1.4684E+00  0.000E+00  0.000E+00  0.000E+00  1.07264E+03  1.727E+00  8.909E+00  6.682E-02  1.864E+00
   1    3    7     3     3    1.4684E+00  1.9718E-01   1.2712E+00  0.000E+00  0.000E+00  0.000E+00  1.06987E+03  1.555E+00  8.218E+00  5.547E-02  1.777E+00
   1    4    8     3     4    1.2712E+00  2.2567E-01   1.0456E+00  0.000E+00  0.000E+00  0.000E+00  1.06682E+03  1.364E+00  7.455E+00  6.709E-02  1.682E+00
   1    5    8     3     5    1.0456E+00  1.5790E-01   8.8768E-01  0.000E+00  0.000E+00  0.000E+00  1.06362E+03  1.164E+00  6.655E+00  4.991E-02  1.582E+00
   1    6    8     3     6    8.8768E-01  5.5980E-02   8.3170E-01  0.000E+00  0.000E+00  0.000E+00  1.06158E+03  1.036E+00  6.145E+00  1.844E-02  1.518E+00
   1    5   10     4     1    1.0000E+01  9.0919E-02   9.9091E+00  0.000E+00  0.000E+00  0.000E+00  1.07836E+03  6.368E-01  1.000E+01  2.500E-02  1.212E+00
   1    5    9     4     2    9.9091E+00  1.8158E-01   9.7275E+00  0.000E+00  0.000E+00  0.000E+00  1.07154E+03  6.315E-01  1.000E+01  5.000E-02  1.211E+00
   1    6    8     4     3    9.7275E+00  1.2689E-01   9.6006E+00  0.000E+00  0.000E+00  0.000E+00  1.06381E+03  6.256E-01  1.000E+01  3.500E-02  1.209E+00
   1    6    8     5     1    1.0432E+01  2.2686E-01   1.0205E+01  0.000E+00  0.000E+00  0.000E+00  1.05868E+03  6.790E-01  1.542E+01  6.166E-02  1.226E+00
   1    7    7     5     2    1.0205E+01  2.7894E-01   9.9265E+00  0.000E+00  0.000E+00  0.000E+00  1.05417E+03  6.732E-01  1.519E+01  7.594E-02  1.224E+00
   1    8    7     5     3    9.9265E+00  1.9221E-01   9.7343E+00  0.000E+00  0.000E+00  0.000E+00  1.04992E+03  6.676E-01  1.497E+01  5.241E-02  1.223E+00
   1    8    6     5     4    9.7343E+00  1.3577E-01   9.5985E+00  0.000E+00  0.000E+00  0.000E+00  1.04691E+03  6.637E-01  1.482E+01  3.706E-02  1.221E+00
   1    9    6     6     1    1.9747E+01  2.4336E-01   1.9503E+01  0.000E+00  0.000E+00  0.000E+00  1.04378E+03  1.056E+00  1.200E+01  6.000E-02  1.352E+00
   1   10    7     6     2    1.9503E+01  2.4289E-01   1.9261E+01  0.000E+00  0.000E+00  0.000E+00  1.03923E+03  1.048E+00  1.200E+01  6.000E-02  1.349E+00
   1   11    7     6     3    1.9261E+01  2.4241E-01   1.9018E+01  0.000E+00  0.000E+00  0.000E+00  1.03468E+03  1.040E+00  1.200E+01  6.000E-02  1.347E+00
   1   12    7     6     4    1.9018E+01  2.4194E-01   1.8776E+01  0.000E+00  0.000E+00  0.000E+00  1.03012E+03  1.032E+00  1.200E+01  6.000E-02  1.344E+00
   1   13    7     6     5    1.8776E+01 -3.9246E-02   1.8815E+01  0.000E+00  0.000E+00  0.000E+00  1.02694E+03  1.029E+00  1.200E+01  2.400E-01 -5.451E-02
   1   14    9     7     1    1.5000E+02  1.3359E+00   1.4866E+02  0.000E+00  0.000E+00  0.000E+00  1.03987E+03  2.288E+00  5.529E+01  5.593E-01  7.962E-01
   1   13    8     7     2    1.4866E+02  1.8241E+00   1.4684E+02  0.000E+00  0.000E+00  0.000E+00  1.03478E+03  2.279E+00  5.526E+01  6.148E-01  9.890E-01
   1   13    7     7     3    1.4684E+02  1.4455E+00   1.4539E+02  0.000E+00  0.000E+00  0.000E+00  1.02969E+03  2.271E+00  5.522E+01  5.585E-01  8.628E-01
   1   13    6     8     1    1.6421E+02  8.6349E-01   1.6335E+02  0.000E+00  0.000E+00  0.000E+00  1.02479E+03  2.911E+00  4.221E+01  4.302E-01  6.691E-01
   1   13    5     8     2    1.6335E+02  1.2685E-01   1.6322E+02  0.000E+00  0.000E+00  0.000E+00  1.01853E+03  2.908E+00  4.216E+01  4.297E-01  9.841E-02
   1   13    4     8     3    1.6322E+02 -2.5940E+00   1.6581E+02  0.000E+00  0.000E+00  0.000E+00  1.01229E+03  2.916E+00  4.228E+01  4.309E+00 -2.007E-01
   1   13    3     8     4    1.6581E+02 -3.7251E+00   1.6954E+02  0.000E+00  0.000E+00  0.000E+00  1.00606E+03  2.937E+00  4.259E+01  4.340E+00 -2.861E-01
   1   13    2     8     5    1.6954E+02 -2.6006E+00   1.7214E+02  0.000E+00  0.000E+00  0.000E+00  9.99833E+02  2.958E+00  4.289E+01  4.370E+00 -1.984E-01
   1   13    1     8     6    1.7214E+02 -1.9921E+00   1.7413E+02  0.000E+00  0.000E+00  0.000E+00  9.94848E+02  2.973E+00  4.310E+01  2.635E+00 -2.520E-01
   1    8    6     9     1    0.0000E+00  0.0000E+00   0.0000E+00  0.000E+00  0.000E+00  0.000E+00  1.07875E+03  0.000E+00  4.000E+00  0.000E+00  1.000E+00
   1    8    5     9     2    0.0000E+00  0.0000E+00   0.0000E+00  0.000E+00  0.000E+00  0.000E+00  1.07825E+03  0.000E+00  4.000E+00  0.000E+00  1.000E+00





UNSATURATED ZONE PACKAGE VOLUMETRIC BUDGET FOR  TIME STEP    30 STRESS PERIOD   14
  ------------------------------------------------------------------------------



     CUMULATIVE VOLUMES      L**3       RATES FOR THIS TIME STEP      L**3/T
     ------------------                 ------------------------

           IN:                                      IN:
           ---                                      ---
        INFILTRATION =   520638519.3679          INFILTRATION =           0.8475

          OUT:                                     OUT:
          ----                                     ----
              UZF ET =   432500012.0333                UZF ET =           0.7500
        UZF RECHARGE =       73224.0000          UZF RECHARGE =       0.0000E+00

            IN - OUT =    88065283.3345              IN - OUT =       9.7500E-02

          STORAGE:                                 STORAGE:
          --------                                 --------
      STORAGE CHANGE =    88065247.9027        STORAGE CHANGE =       9.7500E-02

 PERCENT DISCREPANCY IS DIFFERENCE BETWEEN IN-OUT MINUS CHANGE IN STORAGE
 DIVIDED BY THE AVERAGE OF IN AND OUT TIMES 100

 PERCENT DISCREPANCY =           0.00     PERCENT DISCREPANCY =           0.00






1
  VOLUMETRIC BUDGET FOR AGRICULTURAL FIELDS AT  END OF TIME STEP   30, STRESS PERIOD  14
  ------------------------------------------------------------------------------

     CUMULATIVE VOLUMES      L**3       RATES FOR THIS TIME STEP      L**3/T
     ------------------                 ------------------------

           IN:                                      IN:
           ---                                      ---
               AG WELLS  =   151827360.0000                 AG WELLS  =           0.0000
      DIVERSION SEGMENTS =   339757888.0000        DIVERSION SEGMENTS =           0.0000
           GW IRRIGATION =           0.0000             GW IRRIGATION =           0.0000
           SW IRRIGATION =           0.0000             SW IRRIGATION =           0.0000
        SYSTEM LOSSES GW =           0.0000          SYSTEM LOSSES GW =           0.0000
        SYSTEM LOSSES SW =           0.0000          SYSTEM LOSSES SW =           0.0000

                TOTAL IN =   491585248.0000                  TOTAL IN =           0.0000

          OUT:                                     OUT:
          ----                                     ----
               AG WELLS  =           0.0000                 AG WELLS  =           0.0000
      DIVERSION SEGMENTS =           0.0000        DIVERSION SEGMENTS =           0.0000
           GW IRRIGATION =   151827360.0000             GW IRRIGATION =           0.0000
           SW IRRIGATION =   339764480.0000             SW IRRIGATION =           0.0000
        SYSTEM LOSSES GW =           0.0000          SYSTEM LOSSES GW =           0.0000
        SYSTEM LOSSES SW =           0.0000          SYSTEM LOSSES SW =           0.0000

               TOTAL OUT =   491591840.0000                 TOTAL OUT =           0.0000

                IN - OUT =       -6592.0000                  IN - OUT =           0.0000

     PERCENT DISCREPANCY =          -0.00         PERCENT DISCREPANCY =           0.00



1
  VOLUMETRIC BUDGET FOR ENTIRE MODEL AT END OF TIME STEP   30, STRESS PERIOD  14
  ------------------------------------------------------------------------------

     CUMULATIVE VOLUMES      L**3       RATES FOR THIS TIME STEP      L**3/T
     ------------------                 ------------------------

           IN:                                      IN:
           ---                                      ---
             STORAGE     =   256876896.0000               STORAGE     =           2.5543
       CONSTANT HEAD     =           0.0000         CONSTANT HEAD     =           0.0000
     HEAD DEP BOUNDS     =     9794197.0000       HEAD DEP BOUNDS     =           0.2858
      STREAM LEAKAGE     =   408071392.0000        STREAM LEAKAGE     =          11.0699
        UZF RECHARGE     =       73223.9531          UZF RECHARGE     =           0.0000
               GW ET     =           0.0000                 GW ET     =           0.0000
     SURFACE LEAKAGE     =           0.0000       SURFACE LEAKAGE     =           0.0000
           AG WELLS      =           0.0000             AG WELLS      =           0.0000

                TOTAL IN =   674815680.0000                  TOTAL IN =          13.9099

          OUT:                                     OUT:
          ----                                     ----
             STORAGE     =   139782736.0000               STORAGE     =           2.6700
       CONSTANT HEAD     =           0.0000         CONSTANT HEAD     =           0.0000
     HEAD DEP BOUNDS     =     9965370.0000       HEAD DEP BOUNDS     =           0.2889
      STREAM LEAKAGE     =   371692576.0000        STREAM LEAKAGE     =          10.9511
        UZF RECHARGE     =           0.0000          UZF RECHARGE     =           0.0000
               GW ET     =     1552216.2500                 GW ET     =           0.0000
     SURFACE LEAKAGE     =           0.0000       SURFACE LEAKAGE     =           0.0000
           AG WELLS      =   151827360.0000             AG WELLS      =           0.0000

               TOTAL OUT =   674820288.0000                 TOTAL OUT =          13.9100

                IN - OUT =       -4608.0000                  IN - OUT =      -2.8610E-05

     PERCENT DISCREPANCY =          -0.00         PERCENT DISCREPANCY =          -0.00






         TIME SUMMARY AT END OF TIME STEP   30 IN STRESS PERIOD   14
                    SECONDS     MINUTES      HOURS       DAYS        YEARS
                    -----------------------------------------------------------
   TIME STEP LENGTH  87667.      1461.1      24.352      1.0147     2.77799E-03
 STRESS PERIOD TIME 2.63000E+06  43833.      730.56      30.440     8.33397E-02
         TOTAL TIME 3.42763E+07 5.71272E+05  9521.2      396.72      1.0862    
1
1
                            STRESS PERIOD NO.   15, LENGTH =   2630000.    
                            -----------------------------------------------

                              NUMBER OF TIME STEPS =    30

                               MULTIPLIER FOR DELT =     1.000

                            INITIAL TIME STEP SIZE =   87666.66    

 REUSING NON-PARAMETER GHB CELLS FROM LAST STRESS PERIOD

      2 GHB CELLS

 REUSING STREAM SEGMENT DATA FROM LAST STRESS PERIOD



            AREAL INFILTRATION RATE
 READING ON UNIT   19 WITH FORMAT: (FREE)              

            1           2           3           4           5           6           7           8           9          10
 ........................................................................................................................
   1   1.0000E-10  2.0000E-10   0.000       0.000       0.000       0.000       0.000       0.000       0.000       0.000    
   2   2.0000E-10  1.0000E-10  2.0000E-10   0.000       0.000      8.0000E-10  8.0000E-10  5.0000E-10   0.000       0.000    
   3    0.000      5.0000E-10  1.0000E-10  1.0000E-10  8.0000E-10  8.0000E-10  5.0000E-10  5.0000E-10   0.000       0.000    
   4   8.0000E-10  5.0000E-10  1.0000E-10  1.0000E-10  1.0000E-10  1.0000E-10  1.0000E-10  1.0000E-10  2.0000E-10   0.000    
   5   8.0000E-10  5.0000E-10  1.0000E-10  1.0000E-10  1.0000E-10  1.0000E-10  1.0000E-10  1.0000E-10  1.0000E-10  1.0000E-10
   6   8.0000E-10  5.0000E-10  5.0000E-10  2.0000E-10  2.0000E-10  1.0000E-10  1.0000E-10  1.0000E-10  1.0000E-10  5.0000E-10
   7   8.0000E-10  5.0000E-10  5.0000E-10  2.0000E-10  2.0000E-10  1.0000E-10  1.0000E-10  2.0000E-10  2.0000E-10   0.000    
   8    0.000      5.0000E-10  5.0000E-10  2.0000E-10  2.0000E-10  1.0000E-10  1.0000E-10  2.0000E-10  5.0000E-10   0.000    
   9    0.000      5.0000E-10  5.0000E-10  2.0000E-10  2.0000E-10  1.0000E-10  1.0000E-10  2.0000E-10  5.0000E-10   0.000    
  10    0.000      5.0000E-10  5.0000E-10  2.0000E-10  2.0000E-10  1.0000E-10  1.0000E-10  2.0000E-10  5.0000E-10  8.0000E-10
  11    0.000      1.0000E-10  1.0000E-10  1.0000E-10  1.0000E-10  1.0000E-10  1.0000E-10  2.0000E-10  5.0000E-10   0.000    
  12   1.0000E-10  1.0000E-10  1.0000E-10  1.0000E-10  1.0000E-10  1.0000E-10  1.0000E-10  1.0000E-10  2.0000E-10   0.000    
  13   1.0000E-10  1.0000E-10  2.0000E-10  2.0000E-10  2.0000E-10  2.0000E-10  2.0000E-10  1.0000E-10  1.0000E-10   0.000    
  14    0.000      2.0000E-10  5.0000E-10  5.0000E-10  5.0000E-10  5.0000E-10  5.0000E-10  2.0000E-10  1.0000E-10   0.000    
  15    0.000       0.000      8.0000E-10  8.0000E-10  8.0000E-10  8.0000E-10   0.000       0.000       0.000       0.000    

                  ET RATE =  5.000000E-10

 USING ET EXTINCTION DEPTH FROM PREVIOUS STRESS PERIOD. CURRENT PERIOD IS:      15

 USING EXTINCTION WATER CONTENT FROM PREVIOUS STRESS PERIOD. CURRENT PERIOD IS:      15

 USING AIR ENTRY PRESSURE FROM PREVIOUS STRESS PERIOD. CURRENT PERIOD IS:      15

 USING ROOT PRESSURE HEAD FROM PREVIOUS STRESS PERIOD. CURRENT PERIOD IS:      15

 USING ROOT ACTIVITY FROM PREVIOUS STRESS PERIOD. CURRENT PERIOD IS:      15

 PROCESSING AG STRESS PERIOD DATA

 READING AG STRESS PERIOD DATA

 READING IRRIGATION SEGMENT

 READING IRRIGATION WELL

 READING SUPPLEMENTAL WELL

 END PROCESSING AG STRESS PERIOD DATA OPTIONS
 
 SOLVING FOR HEAD 
                                                   Max.-Head-Change                         Max.-Flux-Residual
  Residual-Control   Outer-Iter.   Inner-Iter.     Column Row Layer    Maximum-Head-Change  Column Row Layer    Maximum-Flux-Residual          L2-NORM 
          0                 1           2             4    7     1       0.5879682969E-02       4    7    1         0.3086122006E+00      0.7739579695E+00
          0                 2           2             4    7     1      -0.5719335791E-03       4    7    1        -0.3086127140E-01      0.7739251760E-01
          0                 3           1             4    7     1       0.3894654936E-04       4    7    1         0.2160289431E-02      0.5417175188E-02

    ------------------------------------------------
       NWT REQUIRED            3 OUTER ITERATIONS 
       AND A TOTAL OF          5 INNER ITERATIONS.
    ------------------------------------------------

 NO OUTPUT CONTROL FOR STRESS PERIOD   15   TIME STEP    1
 
 SOLVING FOR HEAD 
                                                   Max.-Head-Change                         Max.-Flux-Residual
  Residual-Control   Outer-Iter.   Inner-Iter.     Column Row Layer    Maximum-Head-Change  Column Row Layer    Maximum-Flux-Residual          L2-NORM 
          0                 1           2             4    7     1       0.5820827027E-02       4    7    1         0.3055068863E+00      0.7654767551E+00
          0                 2           2             4    7     1      -0.5662084826E-03       4    7    1        -0.3055073871E-01      0.7654762049E-01
          0                 3           1             4    7     1       0.3855669215E-04       4    7    1         0.2138552160E-02      0.5358324849E-02

    ------------------------------------------------
       NWT REQUIRED            3 OUTER ITERATIONS 
       AND A TOTAL OF          5 INNER ITERATIONS.
    ------------------------------------------------

 NO OUTPUT CONTROL FOR STRESS PERIOD   15   TIME STEP    2
 
 SOLVING FOR HEAD 
                                                   Max.-Head-Change                         Max.-Flux-Residual
  Residual-Control   Outer-Iter.   Inner-Iter.     Column Row Layer    Maximum-Head-Change  Column Row Layer    Maximum-Flux-Residual          L2-NORM 
          0                 1           2             4    7     1       0.5762708202E-02       4    7    1         0.3024404857E+00      0.7587866923E+00
          0                 2           2             4    7     1      -0.5605550879E-03       4    7    1        -0.3024409745E-01      0.7587644230E-01
          0                 3           1             4    7     1       0.3817171704E-04       4    7    1         0.2117087272E-02      0.5310982605E-02

    ------------------------------------------------
       NWT REQUIRED            3 OUTER ITERATIONS 
       AND A TOTAL OF          5 INNER ITERATIONS.
    ------------------------------------------------

 NO OUTPUT CONTROL FOR STRESS PERIOD   15   TIME STEP    3
 
 SOLVING FOR HEAD 
                                                   Max.-Head-Change                         Max.-Flux-Residual
  Residual-Control   Outer-Iter.   Inner-Iter.     Column Row Layer    Maximum-Head-Change  Column Row Layer    Maximum-Flux-Residual          L2-NORM 
          0                 1           2             4    7     1       0.5705588767E-02       4    7    1         0.2994270894E+00      0.7526056550E+00
          0                 2           2             4    7     1      -0.5549989073E-03       4    7    1        -0.2994275666E-01      0.7525895987E-01
          0                 3           1             4    7     1       0.3779336215E-04       4    7    1         0.2095993420E-02      0.5267993169E-02

    ------------------------------------------------
       NWT REQUIRED            3 OUTER ITERATIONS 
       AND A TOTAL OF          5 INNER ITERATIONS.
    ------------------------------------------------

 NO OUTPUT CONTROL FOR STRESS PERIOD   15   TIME STEP    4
 
 SOLVING FOR HEAD 
                                                   Max.-Head-Change                         Max.-Flux-Residual
  Residual-Control   Outer-Iter.   Inner-Iter.     Column Row Layer    Maximum-Head-Change  Column Row Layer    Maximum-Flux-Residual          L2-NORM 
          0                 1           2             4    7     1       0.5649442191E-02       4    7    1         0.2964655103E+00      0.7465247239E+00
          0                 2           2             4    7     1      -0.5495373601E-03       4    7    1        -0.2964659764E-01      0.7465121420E-01
          0                 3           1             4    7     1       0.3742145070E-04       4    7    1         0.2075262284E-02      0.5225451808E-02

    ------------------------------------------------
       NWT REQUIRED            3 OUTER ITERATIONS 
       AND A TOTAL OF          5 INNER ITERATIONS.
    ------------------------------------------------

 NO OUTPUT CONTROL FOR STRESS PERIOD   15   TIME STEP    5
 
 SOLVING FOR HEAD 
                                                   Max.-Head-Change                         Max.-Flux-Residual
  Residual-Control   Outer-Iter.   Inner-Iter.     Column Row Layer    Maximum-Head-Change  Column Row Layer    Maximum-Flux-Residual          L2-NORM 
          0                 1           2             4    7     1       0.5593967913E-02       4    7    1         0.2935395864E+00      0.7405217276E+00
          0                 2           2             4    7     1      -0.5441412097E-03       4    7    1        -0.2935400417E-01      0.7405127968E-01
          0                 3           1             4    7     1       0.3705399320E-04       4    7    1         0.2054780753E-02      0.5183595596E-02

    ------------------------------------------------
       NWT REQUIRED            3 OUTER ITERATIONS 
       AND A TOTAL OF          5 INNER ITERATIONS.
    ------------------------------------------------

 NO OUTPUT CONTROL FOR STRESS PERIOD   15   TIME STEP    6
 
 SOLVING FOR HEAD 
                                                   Max.-Head-Change                         Max.-Flux-Residual
  Residual-Control   Outer-Iter.   Inner-Iter.     Column Row Layer    Maximum-Head-Change  Column Row Layer    Maximum-Flux-Residual          L2-NORM 
          0                 1           2             4    7     1       0.5539159417E-02       4    7    1         0.2906485200E+00      0.7346285779E+00
          0                 2           2             4    7     1      -0.5388098214E-03       4    7    1        -0.2906489644E-01      0.7346219577E-01
          0                 3           1             4    7     1       0.3669094539E-04       4    7    1         0.2034543201E-02      0.5142265787E-02

    ------------------------------------------------
       NWT REQUIRED            3 OUTER ITERATIONS 
       AND A TOTAL OF          5 INNER ITERATIONS.
    ------------------------------------------------

 NO OUTPUT CONTROL FOR STRESS PERIOD   15   TIME STEP    7
 
 SOLVING FOR HEAD 
                                                   Max.-Head-Change                         Max.-Flux-Residual
  Residual-Control   Outer-Iter.   Inner-Iter.     Column Row Layer    Maximum-Head-Change  Column Row Layer    Maximum-Flux-Residual          L2-NORM 
          0                 1           2             4    7     1       0.5485549639E-02       4    7    1         0.2878215468E+00      0.7288266871E+00
          0                 2           2             4    7     1      -0.5335950365E-03       4    7    1        -0.2878219808E-01      0.7288217316E-01
          0                 3           1             4    7     1       0.3633583821E-04       4    7    1         0.2014754324E-02      0.5101740833E-02

    ------------------------------------------------
       NWT REQUIRED            3 OUTER ITERATIONS 
       AND A TOTAL OF          5 INNER ITERATIONS.
    ------------------------------------------------

 NO OUTPUT CONTROL FOR STRESS PERIOD   15   TIME STEP    8
 
 SOLVING FOR HEAD 
                                                   Max.-Head-Change                         Max.-Flux-Residual
  Residual-Control   Outer-Iter.   Inner-Iter.     Column Row Layer    Maximum-Head-Change  Column Row Layer    Maximum-Flux-Residual          L2-NORM 
          0                 1           2             4    7     1       0.5432281030E-02       4    7    1         0.2850123654E+00      0.7230912130E+00
          0                 2           2             4    7     1      -0.5284134388E-03       4    7    1        -0.2850127895E-01      0.7230879554E-01
          0                 3           1             4    7     1       0.3598299055E-04       4    7    1         0.1995089983E-02      0.5061572155E-02

    ------------------------------------------------
       NWT REQUIRED            3 OUTER ITERATIONS 
       AND A TOTAL OF          5 INNER ITERATIONS.
    ------------------------------------------------

 NO OUTPUT CONTROL FOR STRESS PERIOD   15   TIME STEP    9
 
 SOLVING FOR HEAD 
                                                   Max.-Head-Change                         Max.-Flux-Residual
  Residual-Control   Outer-Iter.   Inner-Iter.     Column Row Layer    Maximum-Head-Change  Column Row Layer    Maximum-Flux-Residual          L2-NORM 
          0                 1           2             4    7     1       0.5380179356E-02       4    7    1         0.2822652336E+00      0.7174558215E+00
          0                 2           2             4    7     1      -0.5233453521E-03       4    7    1        -0.2822656479E-01      0.7174536184E-01
          0                 3           1             4    7     1       0.3563787311E-04       4    7    1         0.1975859994E-02      0.5022150207E-02

    ------------------------------------------------
       NWT REQUIRED            3 OUTER ITERATIONS 
       AND A TOTAL OF          5 INNER ITERATIONS.
    ------------------------------------------------

 NO OUTPUT CONTROL FOR STRESS PERIOD   15   TIME STEP   10
 
 SOLVING FOR HEAD 
                                                   Max.-Head-Change                         Max.-Flux-Residual
  Residual-Control   Outer-Iter.   Inner-Iter.     Column Row Layer    Maximum-Head-Change  Column Row Layer    Maximum-Flux-Residual          L2-NORM 
          0                 1           2             4    7     1       0.5328660004E-02       4    7    1         0.2795490320E+00      0.7118821870E+00
          0                 2           2             4    7     1      -0.5183339101E-03       4    7    1        -0.2795494369E-01      0.7118805986E-01
          0                 3           1             4    7     1       0.3529661274E-04       4    7    1         0.1956846521E-02      0.4983161632E-02

    ------------------------------------------------
       NWT REQUIRED            3 OUTER ITERATIONS 
       AND A TOTAL OF          5 INNER ITERATIONS.
    ------------------------------------------------

 NO OUTPUT CONTROL FOR STRESS PERIOD   15   TIME STEP   11
 
 SOLVING FOR HEAD 
                                                   Max.-Head-Change                         Max.-Flux-Residual
  Residual-Control   Outer-Iter.   Inner-Iter.     Column Row Layer    Maximum-Head-Change  Column Row Layer    Maximum-Flux-Residual          L2-NORM 
          0                 1           2             4    7     1       0.5277989680E-02       4    7    1         0.2768778102E+00      0.7063967377E+00
          0                 2           2             4    7     1      -0.5134050575E-03       4    7    1        -0.2768782060E-01      0.7064349353E-01
          0                 3           1             4    7     1       0.3496097643E-04       4    7    1         0.1938147914E-02      0.4945051423E-02

    ------------------------------------------------
       NWT REQUIRED            3 OUTER ITERATIONS 
       AND A TOTAL OF          5 INNER ITERATIONS.
    ------------------------------------------------

 NO OUTPUT CONTROL FOR STRESS PERIOD   15   TIME STEP   12
 
 SOLVING FOR HEAD 
                                                   Max.-Head-Change                         Max.-Flux-Residual
  Residual-Control   Outer-Iter.   Inner-Iter.     Column Row Layer    Maximum-Head-Change  Column Row Layer    Maximum-Flux-Residual          L2-NORM 
          0                 1           2             4    7     1       0.5227874757E-02       4    7    1         0.2742358218E+00      0.7009745935E+00
          0                 2           2             4    7     1      -0.5085302273E-03       4    7    1        -0.2742362085E-01      0.7009741692E-01
          0                 3           1             4    7     1       0.3462901874E-04       4    7    1         0.1919653933E-02      0.4906853041E-02

    ------------------------------------------------
       NWT REQUIRED            3 OUTER ITERATIONS 
       AND A TOTAL OF          5 INNER ITERATIONS.
    ------------------------------------------------

 NO OUTPUT CONTROL FOR STRESS PERIOD   15   TIME STEP   13
 
 SOLVING FOR HEAD 
                                                   Max.-Head-Change                         Max.-Flux-Residual
  Residual-Control   Outer-Iter.   Inner-Iter.     Column Row Layer    Maximum-Head-Change  Column Row Layer    Maximum-Flux-Residual          L2-NORM 
          0                 1           2             4    7     1       0.5178576910E-02       4    7    1         0.2716374180E+00      0.6956213833E+00
          0                 2           2             4    7     1      -0.5037348780E-03       4    7    1        -0.2716377960E-01      0.6956211219E-01
          0                 3           1             4    7     1       0.3430247305E-04       4    7    1         0.1901465041E-02      0.4869349710E-02

    ------------------------------------------------
       NWT REQUIRED            3 OUTER ITERATIONS 
       AND A TOTAL OF          5 INNER ITERATIONS.
    ------------------------------------------------

 NO OUTPUT CONTROL FOR STRESS PERIOD   15   TIME STEP   14
 
 SOLVING FOR HEAD 
                                                   Max.-Head-Change                         Max.-Flux-Residual
  Residual-Control   Outer-Iter.   Inner-Iter.     Column Row Layer    Maximum-Head-Change  Column Row Layer    Maximum-Flux-Residual          L2-NORM 
          0                 1           2             4    7     1       0.5129810428E-02       4    7    1         0.2690665905E+00      0.6903343573E+00
          0                 2           2             4    7     1      -0.4989912161E-03       4    7    1        -0.2690669599E-01      0.6903341989E-01
          0                 3           1             4    7     1       0.3397944717E-04       4    7    1         0.1883469170E-02      0.4832332869E-02

    ------------------------------------------------
       NWT REQUIRED            3 OUTER ITERATIONS 
       AND A TOTAL OF          5 INNER ITERATIONS.
    ------------------------------------------------

 NO OUTPUT CONTROL FOR STRESS PERIOD   15   TIME STEP   15
 
 SOLVING FOR HEAD 
                                                   Max.-Head-Change                         Max.-Flux-Residual
  Residual-Control   Outer-Iter.   Inner-Iter.     Column Row Layer    Maximum-Head-Change  Column Row Layer    Maximum-Flux-Residual          L2-NORM 
          0                 1           2             4    7     1       0.5082100945E-02       4    7    1         0.2665528897E+00      0.6851088206E+00
          0                 2           2             4    7     1      -0.4943503727E-03       4    7    1        -0.2665532511E-01      0.6851084473E-01
          0                 3           1             4    7     1       0.3366342303E-04       4    7    1         0.1865873212E-02      0.4795754109E-02

    ------------------------------------------------
       NWT REQUIRED            3 OUTER ITERATIONS 
       AND A TOTAL OF          5 INNER ITERATIONS.
    ------------------------------------------------

 NO OUTPUT CONTROL FOR STRESS PERIOD   15   TIME STEP   16
 
 SOLVING FOR HEAD 
                                                   Max.-Head-Change                         Max.-Flux-Residual
  Residual-Control   Outer-Iter.   Inner-Iter.     Column Row Layer    Maximum-Head-Change  Column Row Layer    Maximum-Flux-Residual          L2-NORM 
          0                 1           2             4    7     1       0.5034877203E-02       4    7    1         0.2640644166E+00      0.6799556593E+00
          0                 2           2             4    7     1      -0.4897567785E-03       4    7    1        -0.2640647698E-01      0.6799553723E-01
          0                 3           1             4    7     1       0.3335061646E-04       4    7    1         0.1848453856E-02      0.4759682877E-02

    ------------------------------------------------
       NWT REQUIRED            3 OUTER ITERATIONS 
       AND A TOTAL OF          5 INNER ITERATIONS.
    ------------------------------------------------

 NO OUTPUT CONTROL FOR STRESS PERIOD   15   TIME STEP   17
 
 SOLVING FOR HEAD 
                                                   Max.-Head-Change                         Max.-Flux-Residual
  Residual-Control   Outer-Iter.   Inner-Iter.     Column Row Layer    Maximum-Head-Change  Column Row Layer    Maximum-Flux-Residual          L2-NORM 
          0                 1           2             4    7     1       0.4988135999E-02       4    7    1         0.2616011285E+00      0.6748561489E+00
          0                 2           2             4    7     1      -0.4852101225E-03       4    7    1        -0.2616014741E-01      0.6748557717E-01
          0                 3           1             4    7     1       0.3304100664E-04       4    7    1         0.1831210796E-02      0.4723986911E-02

    ------------------------------------------------
       NWT REQUIRED            3 OUTER ITERATIONS 
       AND A TOTAL OF          5 INNER ITERATIONS.
    ------------------------------------------------

 NO OUTPUT CONTROL FOR STRESS PERIOD   15   TIME STEP   18
 
 SOLVING FOR HEAD 
                                                   Max.-Head-Change                         Max.-Flux-Residual
  Residual-Control   Outer-Iter.   Inner-Iter.     Column Row Layer    Maximum-Head-Change  Column Row Layer    Maximum-Flux-Residual          L2-NORM 
          0                 1           2             4    7     1       0.4942142558E-02       4    7    1         0.2591776478E+00      0.6698307701E+00
          0                 2           2             4    7     1      -0.4807362039E-03       4    7    1        -0.2591779857E-01      0.6698301804E-01
          0                 3           1             4    7     1       0.3273634945E-04       4    7    1         0.1814246375E-02      0.4688801375E-02

    ------------------------------------------------
       NWT REQUIRED            3 OUTER ITERATIONS 
       AND A TOTAL OF          5 INNER ITERATIONS.
    ------------------------------------------------

 NO OUTPUT CONTROL FOR STRESS PERIOD   15   TIME STEP   19
 
 SOLVING FOR HEAD 
                                                   Max.-Head-Change                         Max.-Flux-Residual
  Residual-Control   Outer-Iter.   Inner-Iter.     Column Row Layer    Maximum-Head-Change  Column Row Layer    Maximum-Flux-Residual          L2-NORM 
          0                 1           2             4    7     1       0.4896878808E-02       4    7    1         0.2567929376E+00      0.6648645688E+00
          0                 2           2             4    7     1      -0.4763332636E-03       4    7    1        -0.2567932680E-01      0.6648638438E-01
          0                 3           1             4    7     1       0.3243652512E-04       4    7    1         0.1797553327E-02      0.4654046700E-02

    ------------------------------------------------
       NWT REQUIRED            3 OUTER ITERATIONS 
       AND A TOTAL OF          5 INNER ITERATIONS.
    ------------------------------------------------

 NO OUTPUT CONTROL FOR STRESS PERIOD   15   TIME STEP   20
 
 SOLVING FOR HEAD 
                                                   Max.-Head-Change                         Max.-Flux-Residual
  Residual-Control   Outer-Iter.   Inner-Iter.     Column Row Layer    Maximum-Head-Change  Column Row Layer    Maximum-Flux-Residual          L2-NORM 
          0                 1           2             4    7     1       0.4852324550E-02       4    7    1         0.2544460611E+00      0.6599617799E+00
          0                 2           2             4    7     1      -0.4719993392E-03       4    7    1        -0.2544463845E-01      0.6599607804E-01
          0                 3           1             4    7     1       0.3214140112E-04       4    7    1         0.1781125155E-02      0.4619716000E-02

    ------------------------------------------------
       NWT REQUIRED            3 OUTER ITERATIONS 
       AND A TOTAL OF          5 INNER ITERATIONS.
    ------------------------------------------------

 NO OUTPUT CONTROL FOR STRESS PERIOD   15   TIME STEP   21
 
 SOLVING FOR HEAD 
                                                   Max.-Head-Change                         Max.-Flux-Residual
  Residual-Control   Outer-Iter.   Inner-Iter.     Column Row Layer    Maximum-Head-Change  Column Row Layer    Maximum-Flux-Residual          L2-NORM 
          0                 1           2             4    7     1       0.4808195046E-02       4    7    1         0.2521211819E+00      0.6551173529E+00
          0                 2           2             4    7     1      -0.4677067314E-03       4    7    1        -0.2521214983E-01      0.6551157137E-01
          0                 3           1             4    7     1       0.3184909023E-04       4    7    1         0.1764850941E-02      0.4585807570E-02

    ------------------------------------------------
       NWT REQUIRED            3 OUTER ITERATIONS 
       AND A TOTAL OF          5 INNER ITERATIONS.
    ------------------------------------------------

 NO OUTPUT CONTROL FOR STRESS PERIOD   15   TIME STEP   22
 
 SOLVING FOR HEAD 
                                                   Max.-Head-Change                         Max.-Flux-Residual
  Residual-Control   Outer-Iter.   Inner-Iter.     Column Row Layer    Maximum-Head-Change  Column Row Layer    Maximum-Flux-Residual          L2-NORM 
          0                 1           2             4    7     1       0.4764481376E-02       4    7    1         0.2498183255E+00      0.6503158956E+00
          0                 2           2             4    7     1      -0.4634545731E-03       4    7    1        -0.2498186350E-01      0.6503143288E-01
          0                 3           1             4    7     1       0.3155953444E-04       4    7    1         0.1748730904E-02      0.4552191797E-02

    ------------------------------------------------
       NWT REQUIRED            3 OUTER ITERATIONS 
       AND A TOTAL OF          5 INNER ITERATIONS.
    ------------------------------------------------

 NO OUTPUT CONTROL FOR STRESS PERIOD   15   TIME STEP   23
 
 SOLVING FOR HEAD 
                                                   Max.-Head-Change                         Max.-Flux-Residual
  Residual-Control   Outer-Iter.   Inner-Iter.     Column Row Layer    Maximum-Head-Change  Column Row Layer    Maximum-Flux-Residual          L2-NORM 
          0                 1           2             4    7     1       0.4721728565E-02       4    7    1         0.2475666079E+00      0.6455909015E+00
          0                 2           2             4    7     1      -0.4592958807E-03       4    7    1        -0.2475669109E-01      0.6455892285E-01
          0                 3           1             4    7     1       0.3127634327E-04       4    7    1         0.1732968841E-02      0.4519117430E-02

    ------------------------------------------------
       NWT REQUIRED            3 OUTER ITERATIONS 
       AND A TOTAL OF          5 INNER ITERATIONS.
    ------------------------------------------------

 NO OUTPUT CONTROL FOR STRESS PERIOD   15   TIME STEP   24
 
 SOLVING FOR HEAD 
                                                   Max.-Head-Change                         Max.-Flux-Residual
  Residual-Control   Outer-Iter.   Inner-Iter.     Column Row Layer    Maximum-Head-Change  Column Row Layer    Maximum-Flux-Residual          L2-NORM 
          0                 1           2             4    7     1       0.4679360505E-02       4    7    1         0.2453351312E+00      0.6409059818E+00
          0                 2           2             4    7     1      -0.4551746143E-03       4    7    1        -0.2453354277E-01      0.6409039082E-01
          0                 3           1             4    7     1       0.3099570037E-04       4    7    1         0.1717348456E-02      0.4486304135E-02

    ------------------------------------------------
       NWT REQUIRED            3 OUTER ITERATIONS 
       AND A TOTAL OF          5 INNER ITERATIONS.
    ------------------------------------------------

 NO OUTPUT CONTROL FOR STRESS PERIOD   15   TIME STEP   25
 
 SOLVING FOR HEAD 
                                                   Max.-Head-Change                         Max.-Flux-Residual
  Residual-Control   Outer-Iter.   Inner-Iter.     Column Row Layer    Maximum-Head-Change  Column Row Layer    Maximum-Flux-Residual          L2-NORM 
          0                 1           2             4    7     1       0.4637642207E-02       4    7    1         0.2431383927E+00      0.6362824019E+00
          0                 2           2             4    7     1      -0.4511165522E-03       4    7    1        -0.2431386829E-01      0.6362802075E-01
          0                 3           1             4    7     1       0.3071936137E-04       4    7    1         0.1701971246E-02      0.4453933715E-02

    ------------------------------------------------
       NWT REQUIRED            3 OUTER ITERATIONS 
       AND A TOTAL OF          5 INNER ITERATIONS.
    ------------------------------------------------

 NO OUTPUT CONTROL FOR STRESS PERIOD   15   TIME STEP   26
 
 SOLVING FOR HEAD 
                                                   Max.-Head-Change                         Max.-Flux-Residual
  Residual-Control   Outer-Iter.   Inner-Iter.     Column Row Layer    Maximum-Head-Change  Column Row Layer    Maximum-Flux-Residual          L2-NORM 
          0                 1           2             4    7     1       0.4596568283E-02       4    7    1         0.2409753435E+00      0.6317217979E+00
          0                 2           2             4    7     1      -0.4471211706E-03       4    7    1        -0.2409756277E-01      0.6317188983E-01
          0                 3           1             4    7     1       0.3044729053E-04       4    7    1         0.1686829849E-02      0.4421984854E-02

    ------------------------------------------------
       NWT REQUIRED            3 OUTER ITERATIONS 
       AND A TOTAL OF          5 INNER ITERATIONS.
    ------------------------------------------------

 NO OUTPUT CONTROL FOR STRESS PERIOD   15   TIME STEP   27
 
 SOLVING FOR HEAD 
                                                   Max.-Head-Change                         Max.-Flux-Residual
  Residual-Control   Outer-Iter.   Inner-Iter.     Column Row Layer    Maximum-Head-Change  Column Row Layer    Maximum-Flux-Residual          L2-NORM 
          0                 1           2             4    7     1       0.4555842368E-02       4    7    1         0.2388309146E+00      0.6271975840E+00
          0                 2           2             4    7     1      -0.4431596407E-03       4    7    1        -0.2388311928E-01      0.6271948715E-01
          0                 3           1             4    7     1       0.3017752537E-04       4    7    1         0.1671818806E-02      0.4390347071E-02

    ------------------------------------------------
       NWT REQUIRED            3 OUTER ITERATIONS 
       AND A TOTAL OF          5 INNER ITERATIONS.
    ------------------------------------------------

 NO OUTPUT CONTROL FOR STRESS PERIOD   15   TIME STEP   28
 
 SOLVING FOR HEAD 
                                                   Max.-Head-Change                         Max.-Flux-Residual
  Residual-Control   Outer-Iter.   Inner-Iter.     Column Row Layer    Maximum-Head-Change  Column Row Layer    Maximum-Flux-Residual          L2-NORM 
          0                 1           2             4    7     1       0.4515843535E-02       4   13    1         0.2584588029E+00      0.7875701316E+00
          0                 2           2             7   13     1      -0.1005580378E-02       7   13    1        -0.5581382437E-01      0.9483608473E-01
          0                 3           1             7   13     1       0.6845822477E-04       7   13    1         0.3905961928E-02      0.6578456093E-02

    ------------------------------------------------
       NWT REQUIRED            3 OUTER ITERATIONS 
       AND A TOTAL OF          5 INNER ITERATIONS.
    ------------------------------------------------

 NO OUTPUT CONTROL FOR STRESS PERIOD   15   TIME STEP   29
 
 SOLVING FOR HEAD 
                                                   Max.-Head-Change                         Max.-Flux-Residual
  Residual-Control   Outer-Iter.   Inner-Iter.     Column Row Layer    Maximum-Head-Change  Column Row Layer    Maximum-Flux-Residual          L2-NORM 
          0                 1           2             4   13     1       0.2192620539E-01       4   13    1         0.1265845729E+01      0.2371374983E+01
          0                 2           2             4   13     1      -0.2109617441E-02       4   13    1        -0.1252284330E+00      0.2305886969E+00
          0                 3           2             4   13     1       0.1414961509E-03       4   13    1         0.8636067509E-02      0.1553093607E-01
          0                 4           1             4   13     1      -0.5485137550E-05       4   13    1        -0.3442381258E-03      0.5961599961E-03

    ------------------------------------------------
       NWT REQUIRED            4 OUTER ITERATIONS 
       AND A TOTAL OF          7 INNER ITERATIONS.
    ------------------------------------------------

 NO OUTPUT CONTROL FOR STRESS PERIOD   15   TIME STEP   30



 STREAM LISTING     PERIOD     15   STEP       30

 LAYER ROW COL. STREAM  RCH.  FLOW INTO     FLOW TO   FLOW OUT OF   OVRLND.     DIRECT     STREAM       STREAM     STREAM     STREAM   STREAMBED  STREAMBED
                SEG.NO.  NO.  STRM. RCH.    AQUIFER    STRM. RCH.    RUNOFF     PRECIP       ET          HEAD       DEPTH      WIDTH   CONDCTNC.   GRADIENT

   1    1    1     1     1    7.3501E+01  4.1745E-01   7.3084E+01  0.000E+00  0.000E+00  0.000E+00  1.09473E+03  1.681E+00  1.982E+01  8.917E-02  1.560E+00
   1    2    2     1     2    7.3084E+01  6.4666E-01   7.2437E+01  0.000E+00  0.000E+00  0.000E+00  1.08973E+03  1.675E+00  1.976E+01  1.383E-01  1.558E+00
   1    3    3     1     3    7.2437E+01  5.5167E-01   7.1885E+01  0.000E+00  0.000E+00  0.000E+00  1.08409E+03  1.669E+00  1.969E+01  1.182E-01  1.556E+00
   1    3    4     1     4    7.1885E+01  5.0815E-01   7.1377E+01  0.000E+00  0.000E+00  0.000E+00  1.07907E+03  1.663E+00  1.963E+01  1.090E-01  1.554E+00
   1    4    5     2     1    6.9377E+01  4.0746E-01   6.8970E+01  0.000E+00  0.000E+00  0.000E+00  1.07416E+03  2.224E+00  1.200E+01  7.800E-02  1.741E+00
   1    5    6     2     2    6.8970E+01  3.1301E-01   6.8657E+01  0.000E+00  0.000E+00  0.000E+00  1.06873E+03  2.217E+00  1.200E+01  6.000E-02  1.739E+00
   1    6    6     2     3    6.8657E+01  3.1265E-01   6.8344E+01  0.000E+00  0.000E+00  0.000E+00  1.06400E+03  2.211E+00  1.200E+01  6.000E-02  1.737E+00
   1    7    6     2     4    6.8344E+01  3.1229E-01   6.8032E+01  0.000E+00  0.000E+00  0.000E+00  1.05928E+03  2.205E+00  1.200E+01  6.000E-02  1.735E+00
   1    8    6     2     5    6.8032E+01  3.1192E-01   6.7720E+01  0.000E+00  0.000E+00  0.000E+00  1.05456E+03  2.199E+00  1.200E+01  6.000E-02  1.733E+00
   1    3    5     3     1    2.0000E+00  2.8252E-01   1.7175E+00  0.000E+00  0.000E+00  0.000E+00  1.07555E+03  1.909E+00  9.636E+00  7.227E-02  1.955E+00
   1    3    6     3     2    1.7175E+00  2.4905E-01   1.4684E+00  0.000E+00  0.000E+00  0.000E+00  1.07264E+03  1.727E+00  8.909E+00  6.682E-02  1.864E+00
   1    3    7     3     3    1.4684E+00  1.9718E-01   1.2712E+00  0.000E+00  0.000E+00  0.000E+00  1.06987E+03  1.555E+00  8.218E+00  5.547E-02  1.777E+00
   1    4    8     3     4    1.2712E+00  2.2567E-01   1.0456E+00  0.000E+00  0.000E+00  0.000E+00  1.06682E+03  1.364E+00  7.455E+00  6.709E-02  1.682E+00
   1    5    8     3     5    1.0456E+00  1.5790E-01   8.8768E-01  0.000E+00  0.000E+00  0.000E+00  1.06362E+03  1.164E+00  6.655E+00  4.991E-02  1.582E+00
   1    6    8     3     6    8.8768E-01  5.5980E-02   8.3170E-01  0.000E+00  0.000E+00  0.000E+00  1.06158E+03  1.036E+00  6.145E+00  1.844E-02  1.518E+00
   1    5   10     4     1    1.0000E+01  9.0919E-02   9.9091E+00  0.000E+00  0.000E+00  0.000E+00  1.07836E+03  6.368E-01  1.000E+01  2.500E-02  1.212E+00
   1    5    9     4     2    9.9091E+00  1.8158E-01   9.7275E+00  0.000E+00  0.000E+00  0.000E+00  1.07154E+03  6.315E-01  1.000E+01  5.000E-02  1.211E+00
   1    6    8     4     3    9.7275E+00  1.2689E-01   9.6006E+00  0.000E+00  0.000E+00  0.000E+00  1.06381E+03  6.256E-01  1.000E+01  3.500E-02  1.209E+00
   1    6    8     5     1    1.0432E+01  2.2686E-01   1.0205E+01  0.000E+00  0.000E+00  0.000E+00  1.05868E+03  6.790E-01  1.542E+01  6.166E-02  1.226E+00
   1    7    7     5     2    1.0205E+01  2.7894E-01   9.9265E+00  0.000E+00  0.000E+00  0.000E+00  1.05417E+03  6.732E-01  1.519E+01  7.594E-02  1.224E+00
   1    8    7     5     3    9.9265E+00  1.9221E-01   9.7343E+00  0.000E+00  0.000E+00  0.000E+00  1.04992E+03  6.676E-01  1.497E+01  5.241E-02  1.223E+00
   1    8    6     5     4    9.7343E+00  1.3577E-01   9.5985E+00  0.000E+00  0.000E+00  0.000E+00  1.04691E+03  6.637E-01  1.482E+01  3.706E-02  1.221E+00
   1    9    6     6     1    7.7318E+01  3.2406E-01   7.6994E+01  0.000E+00  0.000E+00  0.000E+00  1.04513E+03  2.401E+00  1.200E+01  6.000E-02  1.800E+00
   1   10    7     6     2    7.6994E+01  3.2370E-01   7.6671E+01  0.000E+00  0.000E+00  0.000E+00  1.04058E+03  2.395E+00  1.200E+01  6.000E-02  1.798E+00
   1   11    7     6     3    7.6671E+01  3.2333E-01   7.6347E+01  0.000E+00  0.000E+00  0.000E+00  1.03603E+03  2.389E+00  1.200E+01  6.000E-02  1.796E+00
   1   12    7     6     4    7.6347E+01  3.2297E-01   7.6024E+01  0.000E+00  0.000E+00  0.000E+00  1.03147E+03  2.383E+00  1.200E+01  6.000E-02  1.794E+00
   1   13    7     6     5    7.6024E+01  2.8673E-02   7.5996E+01  0.000E+00  0.000E+00  0.000E+00  1.02829E+03  2.380E+00  1.200E+01  2.400E-02  3.982E-01
   1   14    9     7     1    1.5000E+02  1.3361E+00   1.4866E+02  0.000E+00  0.000E+00  0.000E+00  1.03987E+03  2.288E+00  5.529E+01  5.593E-01  7.963E-01
   1   13    8     7     2    1.4866E+02  1.8266E+00   1.4684E+02  0.000E+00  0.000E+00  0.000E+00  1.03478E+03  2.279E+00  5.526E+01  6.148E-01  9.904E-01
   1   13    7     7     3    1.4684E+02  1.4498E+00   1.4539E+02  0.000E+00  0.000E+00  0.000E+00  1.02969E+03  2.271E+00  5.522E+01  5.585E-01  8.653E-01
   1   13    6     8     1    2.2138E+02  1.1362E+00   2.2025E+02  0.000E+00  0.000E+00  0.000E+00  1.02513E+03  3.256E+00  4.722E+01  4.812E-01  7.871E-01
   1   13    5     8     2    2.2025E+02  3.1172E-01   2.1994E+02  0.000E+00  0.000E+00  0.000E+00  1.01888E+03  3.252E+00  4.716E+01  4.806E-01  2.162E-01
   1   13    4     8     3    2.1994E+02 -1.3805E+00   2.2132E+02  0.000E+00  0.000E+00  0.000E+00  1.01263E+03  3.255E+00  4.720E+01  4.810E+00 -9.567E-02
   1   13    3     8     4    2.2132E+02 -2.6648E+00   2.2398E+02  0.000E+00  0.000E+00  0.000E+00  1.00639E+03  3.267E+00  4.736E+01  4.827E+00 -1.840E-01
   1   13    2     8     5    2.2398E+02 -1.4629E+00   2.2544E+02  0.000E+00  0.000E+00  0.000E+00  1.00015E+03  3.278E+00  4.753E+01  4.843E+00 -1.007E-01
   1   13    1     8     6    2.2544E+02 -1.3336E+00   2.2678E+02  0.000E+00  0.000E+00  0.000E+00  9.95160E+02  3.285E+00  4.764E+01  2.913E+00 -1.526E-01
   1    8    6     9     1    0.0000E+00  0.0000E+00   0.0000E+00  0.000E+00  0.000E+00  0.000E+00  1.07875E+03  0.000E+00  4.000E+00  0.000E+00  1.000E+00
   1    8    5     9     2    0.0000E+00  0.0000E+00   0.0000E+00  0.000E+00  0.000E+00  0.000E+00  1.07825E+03  0.000E+00  4.000E+00  0.000E+00  1.000E+00





UNSATURATED ZONE PACKAGE VOLUMETRIC BUDGET FOR  TIME STEP    30 STRESS PERIOD   15
  ------------------------------------------------------------------------------



     CUMULATIVE VOLUMES      L**3       RATES FOR THIS TIME STEP      L**3/T
     ------------------                 ------------------------

           IN:                                      IN:
           ---                                      ---
        INFILTRATION =   522867444.2406          INFILTRATION =           0.8475

          OUT:                                     OUT:
          ----                                     ----
              UZF ET =   434472511.9338                UZF ET =           0.7500
        UZF RECHARGE =       73224.0000          UZF RECHARGE =       0.0000E+00

            IN - OUT =    88321708.3068              IN - OUT =       9.7500E-02

          STORAGE:                                 STORAGE:
          --------                                 --------
      STORAGE CHANGE =    88321672.8973        STORAGE CHANGE =       9.7500E-02

 PERCENT DISCREPANCY IS DIFFERENCE BETWEEN IN-OUT MINUS CHANGE IN STORAGE
 DIVIDED BY THE AVERAGE OF IN AND OUT TIMES 100

 PERCENT DISCREPANCY =           0.00     PERCENT DISCREPANCY =           0.00






1
  VOLUMETRIC BUDGET FOR AGRICULTURAL FIELDS AT  END OF TIME STEP   30, STRESS PERIOD  15
  ------------------------------------------------------------------------------

     CUMULATIVE VOLUMES      L**3       RATES FOR THIS TIME STEP      L**3/T
     ------------------                 ------------------------

           IN:                                      IN:
           ---                                      ---
               AG WELLS  =   151827360.0000                 AG WELLS  =           0.0000
      DIVERSION SEGMENTS =   339757888.0000        DIVERSION SEGMENTS =           0.0000
           GW IRRIGATION =           0.0000             GW IRRIGATION =           0.0000
           SW IRRIGATION =           0.0000             SW IRRIGATION =           0.0000
        SYSTEM LOSSES GW =           0.0000          SYSTEM LOSSES GW =           0.0000
        SYSTEM LOSSES SW =           0.0000          SYSTEM LOSSES SW =           0.0000

                TOTAL IN =   491585248.0000                  TOTAL IN =           0.0000

          OUT:                                     OUT:
          ----                                     ----
               AG WELLS  =           0.0000                 AG WELLS  =           0.0000
      DIVERSION SEGMENTS =           0.0000        DIVERSION SEGMENTS =           0.0000
           GW IRRIGATION =   151827360.0000             GW IRRIGATION =           0.0000
           SW IRRIGATION =   339764480.0000             SW IRRIGATION =           0.0000
        SYSTEM LOSSES GW =           0.0000          SYSTEM LOSSES GW =           0.0000
        SYSTEM LOSSES SW =           0.0000          SYSTEM LOSSES SW =           0.0000

               TOTAL OUT =   491591840.0000                 TOTAL OUT =           0.0000

                IN - OUT =       -6592.0000                  IN - OUT =           0.0000

     PERCENT DISCREPANCY =          -0.00         PERCENT DISCREPANCY =           0.00



1
  VOLUMETRIC BUDGET FOR ENTIRE MODEL AT END OF TIME STEP   30, STRESS PERIOD  15
  ------------------------------------------------------------------------------

     CUMULATIVE VOLUMES      L**3       RATES FOR THIS TIME STEP      L**3/T
     ------------------                 ------------------------

           IN:                                      IN:
           ---                                      ---
             STORAGE     =   262559856.0000               STORAGE     =           1.5531
       CONSTANT HEAD     =           0.0000         CONSTANT HEAD     =           0.0000
     HEAD DEP BOUNDS     =    10545777.0000       HEAD DEP BOUNDS     =           0.2858
      STREAM LEAKAGE     =   437715648.0000        STREAM LEAKAGE     =          13.5658
        UZF RECHARGE     =       73223.9531          UZF RECHARGE     =           0.0000
               GW ET     =           0.0000                 GW ET     =           0.0000
     SURFACE LEAKAGE     =           0.0000       SURFACE LEAKAGE     =           0.0000
           AG WELLS      =           0.0000             AG WELLS      =           0.0000

                TOTAL IN =   710894464.0000                  TOTAL IN =          15.4047

          OUT:                                     OUT:
          ----                                     ----
             STORAGE     =   146967888.0000               STORAGE     =           8.2733
       CONSTANT HEAD     =           0.0000         CONSTANT HEAD     =           0.0000
     HEAD DEP BOUNDS     =    10725369.0000       HEAD DEP BOUNDS     =           0.2895
      STREAM LEAKAGE     =   399826400.0000        STREAM LEAKAGE     =           6.8419
        UZF RECHARGE     =           0.0000          UZF RECHARGE     =           0.0000
               GW ET     =     1552216.2500                 GW ET     =           0.0000
     SURFACE LEAKAGE     =           0.0000       SURFACE LEAKAGE     =           0.0000
           AG WELLS      =   151827360.0000             AG WELLS      =           0.0000

               TOTAL OUT =   710899200.0000                 TOTAL OUT =          15.4047

                IN - OUT =       -4736.0000                  IN - OUT =       2.7657E-05

     PERCENT DISCREPANCY =          -0.00         PERCENT DISCREPANCY =           0.00






         TIME SUMMARY AT END OF TIME STEP   30 IN STRESS PERIOD   15
                    SECONDS     MINUTES      HOURS       DAYS        YEARS
                    -----------------------------------------------------------
   TIME STEP LENGTH  87667.      1461.1      24.352      1.0147     2.77799E-03
 STRESS PERIOD TIME 2.63000E+06  43833.      730.56      30.440     8.33397E-02
         TOTAL TIME 3.69063E+07 6.15106E+05  10252.      427.16      1.1695    
1
1
                            STRESS PERIOD NO.   16, LENGTH =   2630000.    
                            -----------------------------------------------

                              NUMBER OF TIME STEPS =    30

                               MULTIPLIER FOR DELT =     1.000

                            INITIAL TIME STEP SIZE =   87666.66    

 REUSING NON-PARAMETER GHB CELLS FROM LAST STRESS PERIOD

      2 GHB CELLS

 REUSING STREAM SEGMENT DATA FROM LAST STRESS PERIOD



            AREAL INFILTRATION RATE
 READING ON UNIT   19 WITH FORMAT: (FREE)              

            1           2           3           4           5           6           7           8           9          10
 ........................................................................................................................
   1   1.0000E-10  2.0000E-10   0.000       0.000       0.000       0.000       0.000       0.000       0.000       0.000    
   2   2.0000E-10  1.0000E-10  2.0000E-10   0.000       0.000      8.0000E-10  8.0000E-10  5.0000E-10   0.000       0.000    
   3    0.000      5.0000E-10  1.0000E-10  1.0000E-10  8.0000E-10  8.0000E-10  5.0000E-10  5.0000E-10   0.000       0.000    
   4   8.0000E-10  5.0000E-10  1.0000E-10  1.0000E-10  1.0000E-10  1.0000E-10  1.0000E-10  1.0000E-10  2.0000E-10   0.000    
   5   8.0000E-10  5.0000E-10  1.0000E-10  1.0000E-10  1.0000E-10  1.0000E-10  1.0000E-10  1.0000E-10  1.0000E-10  1.0000E-10
   6   8.0000E-10  5.0000E-10  5.0000E-10  2.0000E-10  2.0000E-10  1.0000E-10  1.0000E-10  1.0000E-10  1.0000E-10  5.0000E-10
   7   8.0000E-10  5.0000E-10  5.0000E-10  2.0000E-10  2.0000E-10  1.0000E-10  1.0000E-10  2.0000E-10  2.0000E-10   0.000    
   8    0.000      5.0000E-10  5.0000E-10  2.0000E-10  2.0000E-10  1.0000E-10  1.0000E-10  2.0000E-10  5.0000E-10   0.000    
   9    0.000      5.0000E-10  5.0000E-10  2.0000E-10  2.0000E-10  1.0000E-10  1.0000E-10  2.0000E-10  5.0000E-10   0.000    
  10    0.000      5.0000E-10  5.0000E-10  2.0000E-10  2.0000E-10  1.0000E-10  1.0000E-10  2.0000E-10  5.0000E-10  8.0000E-10
  11    0.000      1.0000E-10  1.0000E-10  1.0000E-10  1.0000E-10  1.0000E-10  1.0000E-10  2.0000E-10  5.0000E-10   0.000    
  12   1.0000E-10  1.0000E-10  1.0000E-10  1.0000E-10  1.0000E-10  1.0000E-10  1.0000E-10  1.0000E-10  2.0000E-10   0.000    
  13   1.0000E-10  1.0000E-10  2.0000E-10  2.0000E-10  2.0000E-10  2.0000E-10  2.0000E-10  1.0000E-10  1.0000E-10   0.000    
  14    0.000      2.0000E-10  5.0000E-10  5.0000E-10  5.0000E-10  5.0000E-10  5.0000E-10  2.0000E-10  1.0000E-10   0.000    
  15    0.000       0.000      8.0000E-10  8.0000E-10  8.0000E-10  8.0000E-10   0.000       0.000       0.000       0.000    

                  ET RATE =  5.000000E-10

 USING ET EXTINCTION DEPTH FROM PREVIOUS STRESS PERIOD. CURRENT PERIOD IS:      16

 USING EXTINCTION WATER CONTENT FROM PREVIOUS STRESS PERIOD. CURRENT PERIOD IS:      16

 USING AIR ENTRY PRESSURE FROM PREVIOUS STRESS PERIOD. CURRENT PERIOD IS:      16

 USING ROOT PRESSURE HEAD FROM PREVIOUS STRESS PERIOD. CURRENT PERIOD IS:      16

 USING ROOT ACTIVITY FROM PREVIOUS STRESS PERIOD. CURRENT PERIOD IS:      16

 PROCESSING AG STRESS PERIOD DATA

 READING AG STRESS PERIOD DATA

 READING IRRIGATION SEGMENT

 READING IRRIGATION WELL

 READING SUPPLEMENTAL WELL

 END PROCESSING AG STRESS PERIOD DATA OPTIONS
 
 SOLVING FOR HEAD 
                                                   Max.-Head-Change                         Max.-Flux-Residual
  Residual-Control   Outer-Iter.   Inner-Iter.     Column Row Layer    Maximum-Head-Change  Column Row Layer    Maximum-Flux-Residual          L2-NORM 
          0                 1           2             4   13     1       0.1975306861E-01       4   13    1         0.1139765390E+01      0.2200430135E+01
          0                 2           2             4   13     1      -0.1900453067E-02       4   13    1        -0.1127501597E+00      0.2141257657E+00
          0                 3           2             4   13     1       0.1274448419E-03       4   13    1         0.7774105156E-02      0.1443680667E-01
          0                 4           1             4   13     1      -0.4947738375E-05       4   13    1        -0.3103466524E-03      0.5551105500E-03

    ------------------------------------------------
       NWT REQUIRED            4 OUTER ITERATIONS 
       AND A TOTAL OF          7 INNER ITERATIONS.
    ------------------------------------------------

 NO OUTPUT CONTROL FOR STRESS PERIOD   16   TIME STEP    1
 
 SOLVING FOR HEAD 
                                                   Max.-Head-Change                         Max.-Flux-Residual
  Residual-Control   Outer-Iter.   Inner-Iter.     Column Row Layer    Maximum-Head-Change  Column Row Layer    Maximum-Flux-Residual          L2-NORM 
          0                 1           2             2   13     1       0.1815148176E-01       2   13    1         0.1027629111E+01      0.2046736183E+01
          0                 2           2             4   13     1      -0.1713019886E-02       4   13    1        -0.1015718954E+00      0.1993322527E+00
          0                 3           1             4   13     1       0.1148687366E-03       4   13    1         0.7002890086E-02      0.1345498931E-01
          0                 4           1             4   13     1      -0.4461659975E-05       4   13    1        -0.2796773415E-03      0.5194019894E-03

    ------------------------------------------------
       NWT REQUIRED            4 OUTER ITERATIONS 
       AND A TOTAL OF          6 INNER ITERATIONS.
    ------------------------------------------------

 NO OUTPUT CONTROL FOR STRESS PERIOD   16   TIME STEP    2
 
 SOLVING FOR HEAD 
                                                   Max.-Head-Change                         Max.-Flux-Residual
  Residual-Control   Outer-Iter.   Inner-Iter.     Column Row Layer    Maximum-Head-Change  Column Row Layer    Maximum-Flux-Residual          L2-NORM 
          0                 1           2             2   13     1       0.1671367479E-01       2   13    1         0.9461388533E+00      0.1908647997E+01
          0                 2           2             2   13     1      -0.1549167994E-02       4   13    1        -0.9155367102E-01      0.1860692591E+00
          0                 3           1             4   13     1       0.1036164995E-03       4   13    1         0.6312996436E-02      0.1257745773E-01
          0                 4           1             4   13     1      -0.4030583211E-05       4   13    1        -0.2524911943E-03      0.4871062772E-03

    ------------------------------------------------
       NWT REQUIRED            4 OUTER ITERATIONS 
       AND A TOTAL OF          6 INNER ITERATIONS.
    ------------------------------------------------

 NO OUTPUT CONTROL FOR STRESS PERIOD   16   TIME STEP    3
 
 SOLVING FOR HEAD 
                                                   Max.-Head-Change                         Max.-Flux-Residual
  Residual-Control   Outer-Iter.   Inner-Iter.     Column Row Layer    Maximum-Head-Change  Column Row Layer    Maximum-Flux-Residual          L2-NORM 
          0                 1           2             2   13     1       0.1539042756E-01       2   13    1         0.8711432089E+00      0.1784664516E+01
          0                 2           2             2   13     1      -0.1427400642E-02       2   13    1        -0.8305238549E-01      0.1741530270E+00
          0                 3           1             4   13     1       0.9347577591E-04       4   13    1         0.5691680066E-02      0.1178639877E-01

    ------------------------------------------------
       NWT REQUIRED            3 OUTER ITERATIONS 
       AND A TOTAL OF          5 INNER ITERATIONS.
    ------------------------------------------------

 NO OUTPUT CONTROL FOR STRESS PERIOD   16   TIME STEP    4
 
 SOLVING FOR HEAD 
                                                   Max.-Head-Change                         Max.-Flux-Residual
  Residual-Control   Outer-Iter.   Inner-Iter.     Column Row Layer    Maximum-Head-Change  Column Row Layer    Maximum-Flux-Residual          L2-NORM 
          0                 1           2             2   13     1       0.1417244170E-01       2   13    1         0.8021169438E+00      0.1673367279E+01
          0                 2           2             2   13     1      -0.1315211534E-02       2   13    1        -0.7651634943E-01      0.1634455031E+00
          0                 3           1             4   13     1       0.8440860620E-04       4   13    1         0.5136273001E-02      0.1107872184E-01

    ------------------------------------------------
       NWT REQUIRED            3 OUTER ITERATIONS 
       AND A TOTAL OF          5 INNER ITERATIONS.
    ------------------------------------------------

 NO OUTPUT CONTROL FOR STRESS PERIOD   16   TIME STEP    5
 
 SOLVING FOR HEAD 
                                                   Max.-Head-Change                         Max.-Flux-Residual
  Residual-Control   Outer-Iter.   Inner-Iter.     Column Row Layer    Maximum-Head-Change  Column Row Layer    Maximum-Flux-Residual          L2-NORM 
          0                 1           2             2   13     1       0.1305159368E-01       2   13    1         0.7385975811E+00      0.1573529696E+01
          0                 2           2             2   13     1      -0.1211881328E-02       2   13    1        -0.7049647961E-01      0.1538835754E+00
          0                 3           1             2   13     1       0.7723080868E-04       4   13    1         0.4640651815E-02      0.1044836681E-01

    ------------------------------------------------
       NWT REQUIRED            3 OUTER ITERATIONS 
       AND A TOTAL OF          5 INNER ITERATIONS.
    ------------------------------------------------

 NO OUTPUT CONTROL FOR STRESS PERIOD   16   TIME STEP    6
 
 SOLVING FOR HEAD 
                                                   Max.-Head-Change                         Max.-Flux-Residual
  Residual-Control   Outer-Iter.   Inner-Iter.     Column Row Layer    Maximum-Head-Change  Column Row Layer    Maximum-Flux-Residual          L2-NORM 
          0                 1           2             2   13     1       0.1202023903E-01       2   13    1         0.6801520888E+00      0.1484102560E+01
          0                 2           2             2   13     1      -0.1116687947E-02       2   13    1        -0.6495088173E-01      0.1452871765E+00
          0                 3           1             2   13     1       0.7118517622E-04       2   13    1         0.4255316250E-02      0.9879129528E-02

    ------------------------------------------------
       NWT REQUIRED            3 OUTER ITERATIONS 
       AND A TOTAL OF          5 INNER ITERATIONS.
    ------------------------------------------------

 NO OUTPUT CONTROL FOR STRESS PERIOD   16   TIME STEP    7
 
 SOLVING FOR HEAD 
                                                   Max.-Head-Change                         Max.-Flux-Residual
  Residual-Control   Outer-Iter.   Inner-Iter.     Column Row Layer    Maximum-Head-Change  Column Row Layer    Maximum-Flux-Residual          L2-NORM 
          0                 1           2             2   13     1       0.1107127073E-01       2   13    1         0.6263776170E+00      0.1404022550E+01
          0                 2           2             2   13     1      -0.1029014471E-02       2   13    1        -0.5984362088E-01      0.1376111835E+00
          0                 3           1             2   13     1       0.6565561089E-04       2   13    1         0.3924233198E-02      0.9373806896E-02

    ------------------------------------------------
       NWT REQUIRED            3 OUTER ITERATIONS 
       AND A TOTAL OF          5 INNER ITERATIONS.
    ------------------------------------------------

 NO OUTPUT CONTROL FOR STRESS PERIOD   16   TIME STEP    8
 
 SOLVING FOR HEAD 
                                                   Max.-Head-Change                         Max.-Flux-Residual
  Residual-Control   Outer-Iter.   Inner-Iter.     Column Row Layer    Maximum-Head-Change  Column Row Layer    Maximum-Flux-Residual          L2-NORM 
          0                 1           2             2   13     1       0.1019808115E-01       2   13    1         0.5768995719E+00      0.1332414194E+01
          0                 2           2             2   13     1      -0.9482743775E-03       2   13    1        -0.5514042239E-01      0.1307550920E+00
          0                 3           1             2   13     1       0.6054307984E-04       2   13    1         0.3618129148E-02      0.8921894870E-02

    ------------------------------------------------
       NWT REQUIRED            3 OUTER ITERATIONS 
       AND A TOTAL OF          5 INNER ITERATIONS.
    ------------------------------------------------

 NO OUTPUT CONTROL FOR STRESS PERIOD   16   TIME STEP    9
 
 SOLVING FOR HEAD 
                                                   Max.-Head-Change                         Max.-Flux-Residual
  Residual-Control   Outer-Iter.   Inner-Iter.     Column Row Layer    Maximum-Head-Change  Column Row Layer    Maximum-Flux-Residual          L2-NORM 
          0                 1           2             2   13     1       0.9394775802E-02       2   13    1         0.5313840328E+00      0.1268406298E+01
          0                 2           2             2   13     1      -0.8739367391E-03       2   13    1        -0.5081059351E-01      0.1246239208E+00
          0                 3           1             2   13     1       0.5582654127E-04       2   13    1         0.3335764087E-02      0.8517904112E-02

    ------------------------------------------------
       NWT REQUIRED            3 OUTER ITERATIONS 
       AND A TOTAL OF          5 INNER ITERATIONS.
    ------------------------------------------------

 NO OUTPUT CONTROL FOR STRESS PERIOD   16   TIME STEP   10
 
 SOLVING FOR HEAD 
                                                   Max.-Head-Change                         Max.-Flux-Residual
  Residual-Control   Outer-Iter.   Inner-Iter.     Column Row Layer    Maximum-Head-Change  Column Row Layer    Maximum-Flux-Residual          L2-NORM 
          0                 1           2             2   13     1       0.8655630111E-02       2   13    1         0.4895061770E+00      0.1211220095E+01
          0                 2           2             2   13     1      -0.8054973927E-03       2   13    1        -0.4682450629E-01      0.1191545640E+00
          0                 3           1             2   13     1       0.5149499108E-04       2   13    1         0.3076469386E-02      0.8158310539E-02

    ------------------------------------------------
       NWT REQUIRED            3 OUTER ITERATIONS 
       AND A TOTAL OF          5 INNER ITERATIONS.
    ------------------------------------------------

 NO OUTPUT CONTROL FOR STRESS PERIOD   16   TIME STEP   11
 
 SOLVING FOR HEAD 
                                                   Max.-Head-Change                         Max.-Flux-Residual
  Residual-Control   Outer-Iter.   Inner-Iter.     Column Row Layer    Maximum-Head-Change  Column Row Layer    Maximum-Flux-Residual          L2-NORM 
          0                 1           2             2   13     1       0.7975625544E-02       2   13    1         0.4509815007E+00      0.1160149069E+01
          0                 2           2             2   13     1      -0.7424691242E-03       2   13    1        -0.4315378425E-01      0.1142688949E+00
          0                 3           1             2   13     1       0.4747839715E-04       2   13    1         0.2836002478E-02      0.7837974472E-02

    ------------------------------------------------
       NWT REQUIRED            3 OUTER ITERATIONS 
       AND A TOTAL OF          5 INNER ITERATIONS.
    ------------------------------------------------

 NO OUTPUT CONTROL FOR STRESS PERIOD   16   TIME STEP   12
 
 SOLVING FOR HEAD 
                                                   Max.-Head-Change                         Max.-Flux-Residual
  Residual-Control   Outer-Iter.   Inner-Iter.     Column Row Layer    Maximum-Head-Change  Column Row Layer    Maximum-Flux-Residual          L2-NORM 
          0                 1           2             2   13     1       0.7349943472E-02       2   13    1         0.4155368030E+00      0.1114530605E+01
          0                 2           2             2   13     1      -0.6844216146E-03       2   13    1        -0.3977342928E-01      0.1099046977E+00
          0                 3           1             2   13     1       0.4379862538E-04       2   13    1         0.2615775530E-02      0.7550465717E-02

    ------------------------------------------------
       NWT REQUIRED            3 OUTER ITERATIONS 
       AND A TOTAL OF          5 INNER ITERATIONS.
    ------------------------------------------------

 NO OUTPUT CONTROL FOR STRESS PERIOD   16   TIME STEP   13
 
 SOLVING FOR HEAD 
                                                   Max.-Head-Change                         Max.-Flux-Residual
  Residual-Control   Outer-Iter.   Inner-Iter.     Column Row Layer    Maximum-Head-Change  Column Row Layer    Maximum-Flux-Residual          L2-NORM 
          0                 1           2             2   13     1       0.6774306180E-02       2   13    1         0.3829295505E+00      0.1073783470E+01
          0                 2           2             2   13     1      -0.6310161337E-03       2   13    1        -0.3666363242E-01      0.1060099981E+00
          0                 3           1             2   13     1       0.4037997239E-04       2   13    1         0.2411162216E-02      0.7293669990E-02

    ------------------------------------------------
       NWT REQUIRED            3 OUTER ITERATIONS 
       AND A TOTAL OF          5 INNER ITERATIONS.
    ------------------------------------------------

 NO OUTPUT CONTROL FOR STRESS PERIOD   16   TIME STEP   14
 
 SOLVING FOR HEAD 
                                                   Max.-Head-Change                         Max.-Flux-Residual
  Residual-Control   Outer-Iter.   Inner-Iter.     Column Row Layer    Maximum-Head-Change  Column Row Layer    Maximum-Flux-Residual          L2-NORM 
          0                 1           2             1   13     1       0.6301046595E-02       2   13    1         0.3529281954E+00      0.1037369341E+01
          0                 2           2             1   13     1      -0.5921964670E-03       2   13    1        -0.3379830171E-01      0.1025278002E+00
          0                 3           1             2    2     1       0.3920626348E-04       2   13    1         0.2223904304E-02      0.7064923614E-02

    ------------------------------------------------
       NWT REQUIRED            3 OUTER ITERATIONS 
       AND A TOTAL OF          5 INNER ITERATIONS.
    ------------------------------------------------

 NO OUTPUT CONTROL FOR STRESS PERIOD   16   TIME STEP   15
 
 SOLVING FOR HEAD 
                                                   Max.-Head-Change                         Max.-Flux-Residual
  Residual-Control   Outer-Iter.   Inner-Iter.     Column Row Layer    Maximum-Head-Change  Column Row Layer    Maximum-Flux-Residual          L2-NORM 
          0                 1           2             1   13     1       0.6001375466E-02       1   13    1         0.3278639778E+00      0.1004805215E+01
          0                 2           2             2    2     1      -0.5718924811E-03       1   13    1        -0.3171655944E-01      0.9941423189E-01
          0                 3           1             2    2     1       0.3894374147E-04       2    2    1         0.2149638819E-02      0.6860218975E-02

    ------------------------------------------------
       NWT REQUIRED            3 OUTER ITERATIONS 
       AND A TOTAL OF          5 INNER ITERATIONS.
    ------------------------------------------------

 NO OUTPUT CONTROL FOR STRESS PERIOD   16   TIME STEP   16
 
 SOLVING FOR HEAD 
                                                   Max.-Head-Change                         Max.-Flux-Residual
  Residual-Control   Outer-Iter.   Inner-Iter.     Column Row Layer    Maximum-Head-Change  Column Row Layer    Maximum-Flux-Residual          L2-NORM 
          0                 1           2             2    2     1       0.5840169779E-02       1   13    1         0.3122403430E+00      0.9756589960E+00
          0                 2           2             2    2     1      -0.5680909124E-03       2    2    1        -0.3050363770E-01      0.9662591692E-01
          0                 3           1             2    2     1       0.3868486895E-04       2    2    1         0.2135254517E-02      0.6677540810E-02

    ------------------------------------------------
       NWT REQUIRED            3 OUTER ITERATIONS 
       AND A TOTAL OF          5 INNER ITERATIONS.
    ------------------------------------------------

 NO OUTPUT CONTROL FOR STRESS PERIOD   16   TIME STEP   17
 
 SOLVING FOR HEAD 
                                                   Max.-Head-Change                         Max.-Flux-Residual
  Residual-Control   Outer-Iter.   Inner-Iter.     Column Row Layer    Maximum-Head-Change  Column Row Layer    Maximum-Flux-Residual          L2-NORM 
          0                 1           2             2    2     1       0.5801630721E-02       2    2    1         0.3030089692E+00      0.9495381242E+00
          0                 2           2             2    2     1      -0.5643420843E-03       2    2    1        -0.3030100408E-01      0.9412748160E-01
          0                 3           1             2    2     1       0.3842958795E-04       2    2    1         0.2121070180E-02      0.6512727299E-02

    ------------------------------------------------
       NWT REQUIRED            3 OUTER ITERATIONS 
       AND A TOTAL OF          5 INNER ITERATIONS.
    ------------------------------------------------

 NO OUTPUT CONTROL FOR STRESS PERIOD   16   TIME STEP   18
 
 SOLVING FOR HEAD 
                                                   Max.-Head-Change                         Max.-Flux-Residual
  Residual-Control   Outer-Iter.   Inner-Iter.     Column Row Layer    Maximum-Head-Change  Column Row Layer    Maximum-Flux-Residual          L2-NORM 
          0                 1           2             2    2     1       0.5763538265E-02       2    2    1         0.3010061956E+00      0.9260935365E+00
          0                 2           2             2    2     1      -0.5606366993E-03       2    2    1        -0.3010072487E-01      0.9188206162E-01
          0                 3           1             2    2     1       0.3817726537E-04       2    2    1         0.2107050657E-02      0.6364638623E-02

    ------------------------------------------------
       NWT REQUIRED            3 OUTER ITERATIONS 
       AND A TOTAL OF          5 INNER ITERATIONS.
    ------------------------------------------------

 NO OUTPUT CONTROL FOR STRESS PERIOD   16   TIME STEP   19
 
 SOLVING FOR HEAD 
                                                   Max.-Head-Change                         Max.-Flux-Residual
  Residual-Control   Outer-Iter.   Inner-Iter.     Column Row Layer    Maximum-Head-Change  Column Row Layer    Maximum-Flux-Residual          L2-NORM 
          0                 1           2             2    2     1       0.5725972085E-02       2    2    1         0.2990311458E+00      0.9050153361E+00
          0                 2           2             2    2     1      -0.5569825071E-03       2    2    1        -0.2990321809E-01      0.8986162321E-01
          0                 3           1             2    2     1       0.3792842899E-04       2    2    1         0.2093225192E-02      0.6215578731E-02

    ------------------------------------------------
       NWT REQUIRED            3 OUTER ITERATIONS 
       AND A TOTAL OF          5 INNER ITERATIONS.
    ------------------------------------------------

 NO OUTPUT CONTROL FOR STRESS PERIOD   16   TIME STEP   20
 
 SOLVING FOR HEAD 
                                                   Max.-Head-Change                         Max.-Flux-Residual
  Residual-Control   Outer-Iter.   Inner-Iter.     Column Row Layer    Maximum-Head-Change  Column Row Layer    Maximum-Flux-Residual          L2-NORM 
          0                 1           2             2    2     1       0.5688836870E-02       2    2    1         0.2970788142E+00      0.8860225942E+00
          0                 2           2             2    2     1      -0.5533702366E-03       2    2    1        -0.2970798318E-01      0.8803997565E-01
          0                 3           1             2    2     1       0.3768244665E-04       2    2    1         0.2079558744E-02      0.6111312971E-02

    ------------------------------------------------
       NWT REQUIRED            3 OUTER ITERATIONS 
       AND A TOTAL OF          5 INNER ITERATIONS.
    ------------------------------------------------

 NO OUTPUT CONTROL FOR STRESS PERIOD   16   TIME STEP   21
 
 SOLVING FOR HEAD 
                                                   Max.-Head-Change                         Max.-Flux-Residual
  Residual-Control   Outer-Iter.   Inner-Iter.     Column Row Layer    Maximum-Head-Change  Column Row Layer    Maximum-Flux-Residual          L2-NORM 
          0                 1           2             2    2     1       0.5652299950E-02       2    2    1         0.2951579649E+00      0.8688668955E+00
          0                 2           2             2    2     1      -0.5498161645E-03       2    2    1        -0.2951589652E-01      0.8639219599E-01
          0                 3           1             2    2     1       0.3744042763E-04       2    2    1         0.2066112698E-02      0.6001947786E-02

    ------------------------------------------------
       NWT REQUIRED            3 OUTER ITERATIONS 
       AND A TOTAL OF          5 INNER ITERATIONS.
    ------------------------------------------------

 NO OUTPUT CONTROL FOR STRESS PERIOD   16   TIME STEP   22
 
 SOLVING FOR HEAD 
                                                   Max.-Head-Change                         Max.-Flux-Residual
  Residual-Control   Outer-Iter.   Inner-Iter.     Column Row Layer    Maximum-Head-Change  Column Row Layer    Maximum-Flux-Residual          L2-NORM 
          0                 1           2             2    2     1       0.5616177782E-02       2    2    1         0.2932589989E+00      0.8533448969E+00
          0                 2           2             2    2     1      -0.5463024366E-03       2    2    1        -0.2932599822E-01      0.8489983846E-01
          0                 3           1             2    2     1       0.3720115593E-04       2    2    1         0.2052819817E-02      0.5903025278E-02

    ------------------------------------------------
       NWT REQUIRED            3 OUTER ITERATIONS 
       AND A TOTAL OF          5 INNER ITERATIONS.
    ------------------------------------------------

 NO OUTPUT CONTROL FOR STRESS PERIOD   16   TIME STEP   23
 
 SOLVING FOR HEAD 
                                                   Max.-Head-Change                         Max.-Flux-Residual
  Residual-Control   Outer-Iter.   Inner-Iter.     Column Row Layer    Maximum-Head-Change  Column Row Layer    Maximum-Flux-Residual          L2-NORM 
          0                 1           2             2    2     1       0.5580550563E-02       2    2    1         0.2913861062E+00      0.8392501181E+00
          0                 2           2             2    2     1      -0.5428368548E-03       2    2    1        -0.2913870731E-01      0.8354307721E-01
          0                 3           1             2    2     1       0.3696516285E-04       2    2    1         0.2039709463E-02      0.5812760367E-02

    ------------------------------------------------
       NWT REQUIRED            3 OUTER ITERATIONS 
       AND A TOTAL OF          5 INNER ITERATIONS.
    ------------------------------------------------

 NO OUTPUT CONTROL FOR STRESS PERIOD   16   TIME STEP   24
 
 SOLVING FOR HEAD 
                                                   Max.-Head-Change                         Max.-Flux-Residual
  Residual-Control   Outer-Iter.   Inner-Iter.     Column Row Layer    Maximum-Head-Change  Column Row Layer    Maximum-Flux-Residual          L2-NORM 
          0                 1           2             2    2     1       0.5545323906E-02       2    2    1         0.2895343067E+00      0.8264212458E+00
          0                 2           2             2    2     1      -0.5394102374E-03       2    2    1        -0.2895352574E-01      0.8230655371E-01
          0                 3           1             2    2     1       0.3673182384E-04       2    2    1         0.2026746784E-02      0.5730652171E-02

    ------------------------------------------------
       NWT REQUIRED            3 OUTER ITERATIONS 
       AND A TOTAL OF          5 INNER ITERATIONS.
    ------------------------------------------------

 NO OUTPUT CONTROL FOR STRESS PERIOD   16   TIME STEP   25
 
 SOLVING FOR HEAD 
                                                   Max.-Head-Change                         Max.-Flux-Residual
  Residual-Control   Outer-Iter.   Inner-Iter.     Column Row Layer    Maximum-Head-Change  Column Row Layer    Maximum-Flux-Residual          L2-NORM 
          0                 1           2             2    2     1       0.5510665322E-02       2    2    1         0.2877124145E+00      0.8147196480E+00
          0                 2           2             2    2     1      -0.5360388781E-03       2    2    1        -0.2877133493E-01      0.8117636693E-01
          0                 3           1             2    2     1       0.3650224627E-04       2    2    1         0.2013993425E-02      0.5655420726E-02

    ------------------------------------------------
       NWT REQUIRED            3 OUTER ITERATIONS 
       AND A TOTAL OF          5 INNER ITERATIONS.
    ------------------------------------------------

 NO OUTPUT CONTROL FOR STRESS PERIOD   16   TIME STEP   26
 
 SOLVING FOR HEAD 
                                                   Max.-Head-Change                         Max.-Flux-Residual
  Residual-Control   Outer-Iter.   Inner-Iter.     Column Row Layer    Maximum-Head-Change  Column Row Layer    Maximum-Flux-Residual          L2-NORM 
          0                 1           2             2    2     1       0.5476392524E-02       2    2    1         0.2859108374E+00      0.8039953611E+00
          0                 2           2             2    2     1      -0.5327050460E-03       2    2    1        -0.2859117567E-01      0.8013933359E-01
          0                 3           1             2    2     1       0.3627522524E-04       2    2    1         0.2001382288E-02      0.5585724015E-02

    ------------------------------------------------
       NWT REQUIRED            3 OUTER ITERATIONS 
       AND A TOTAL OF          5 INNER ITERATIONS.
    ------------------------------------------------

 NO OUTPUT CONTROL FOR STRESS PERIOD   16   TIME STEP   27
 
 SOLVING FOR HEAD 
                                                   Max.-Head-Change                         Max.-Flux-Residual
  Residual-Control   Outer-Iter.   Inner-Iter.     Column Row Layer    Maximum-Head-Change  Column Row Layer    Maximum-Flux-Residual          L2-NORM 
          0                 1           2             2    2     1       0.5442498430E-02       2    2    1         0.2841292625E+00      0.7941381204E+00
          0                 2           2             2    2     1      -0.5294080520E-03       2    2    1        -0.2841301667E-01      0.7918492603E-01
          0                 3           1             2    2     1       0.3605071248E-04       2    2    1         0.1988911162E-02      0.5522068569E-02

    ------------------------------------------------
       NWT REQUIRED            3 OUTER ITERATIONS 
       AND A TOTAL OF          5 INNER ITERATIONS.
    ------------------------------------------------

 NO OUTPUT CONTROL FOR STRESS PERIOD   16   TIME STEP   28
 
 SOLVING FOR HEAD 
                                                   Max.-Head-Change                         Max.-Flux-Residual
  Residual-Control   Outer-Iter.   Inner-Iter.     Column Row Layer    Maximum-Head-Change  Column Row Layer    Maximum-Flux-Residual          L2-NORM 
          0                 1           2             2    2     1       0.5409151733E-02       2    2    1         0.2823764625E+00      0.7850653207E+00
          0                 2           2             2    2     1      -0.5261643053E-03       2    2    1        -0.2823773519E-01      0.7830489734E-01
          0                 3           1             2    2     1       0.3582982555E-04       2    2    1         0.1976641471E-02      0.5462833974E-02

    ------------------------------------------------
       NWT REQUIRED            3 OUTER ITERATIONS 
       AND A TOTAL OF          5 INNER ITERATIONS.
    ------------------------------------------------

 NO OUTPUT CONTROL FOR STRESS PERIOD   16   TIME STEP   29
 
 SOLVING FOR HEAD 
                                                   Max.-Head-Change                         Max.-Flux-Residual
  Residual-Control   Outer-Iter.   Inner-Iter.     Column Row Layer    Maximum-Head-Change  Column Row Layer    Maximum-Flux-Residual          L2-NORM 
          0                 1           2             2    2     1       0.4671546299E-02       2    2    1         0.2438060258E+00      0.7080497569E+00
          0                 2           2             2    2     1      -0.4544150562E-03       2    2    1        -0.2438066810E-01      0.7079245376E-01
          0                 3           1             2    2     1       0.3094397117E-04       2    2    1         0.1706646884E-02      0.4954495393E-02

    ------------------------------------------------
       NWT REQUIRED            3 OUTER ITERATIONS 
       AND A TOTAL OF          5 INNER ITERATIONS.
    ------------------------------------------------

 NO OUTPUT CONTROL FOR STRESS PERIOD   16   TIME STEP   30



 STREAM LISTING     PERIOD     16   STEP       30

 LAYER ROW COL. STREAM  RCH.  FLOW INTO     FLOW TO   FLOW OUT OF   OVRLND.     DIRECT     STREAM       STREAM     STREAM     STREAM   STREAMBED  STREAMBED
                SEG.NO.  NO.  STRM. RCH.    AQUIFER    STRM. RCH.    RUNOFF     PRECIP       ET          HEAD       DEPTH      WIDTH   CONDCTNC.   GRADIENT

   1    1    1     1     1    6.6341E+01  3.9373E-01   6.5947E+01  0.000E+00  0.000E+00  0.000E+00  1.09465E+03  1.601E+00  1.902E+01  8.558E-02  1.534E+00
   1    2    2     1     2    6.5947E+01  6.0983E-01   6.5338E+01  0.000E+00  0.000E+00  0.000E+00  1.08965E+03  1.595E+00  1.896E+01  1.327E-01  1.532E+00
   1    3    3     1     3    6.5338E+01  5.2015E-01   6.4817E+01  0.000E+00  0.000E+00  0.000E+00  1.08401E+03  1.588E+00  1.889E+01  1.134E-01  1.529E+00
   1    3    4     1     4    6.4817E+01  4.7905E-01   6.4338E+01  0.000E+00  0.000E+00  0.000E+00  1.07899E+03  1.582E+00  1.884E+01  1.045E-01  1.527E+00
   1    4    5     2     1    6.2338E+01  3.9665E-01   6.1942E+01  0.000E+00  0.000E+00  0.000E+00  1.07402E+03  2.085E+00  1.200E+01  7.800E-02  1.695E+00
   1    5    6     2     2    6.1942E+01  3.0469E-01   6.1637E+01  0.000E+00  0.000E+00  0.000E+00  1.06859E+03  2.078E+00  1.200E+01  6.000E-02  1.693E+00
   1    6    6     2     3    6.1637E+01  3.0432E-01   6.1333E+01  0.000E+00  0.000E+00  0.000E+00  1.06386E+03  2.072E+00  1.200E+01  6.000E-02  1.691E+00
   1    7    6     2     4    6.1333E+01  3.0396E-01   6.1029E+01  0.000E+00  0.000E+00  0.000E+00  1.05914E+03  2.066E+00  1.200E+01  6.000E-02  1.689E+00
   1    8    6     2     5    6.1029E+01  3.0359E-01   6.0725E+01  0.000E+00  0.000E+00  0.000E+00  1.05442E+03  2.060E+00  1.200E+01  6.000E-02  1.687E+00
   1    3    5     3     1    2.0000E+00  2.8252E-01   1.7175E+00  0.000E+00  0.000E+00  0.000E+00  1.07555E+03  1.909E+00  9.636E+00  7.227E-02  1.955E+00
   1    3    6     3     2    1.7175E+00  2.4905E-01   1.4684E+00  0.000E+00  0.000E+00  0.000E+00  1.07264E+03  1.727E+00  8.909E+00  6.682E-02  1.864E+00
   1    3    7     3     3    1.4684E+00  1.9718E-01   1.2712E+00  0.000E+00  0.000E+00  0.000E+00  1.06987E+03  1.555E+00  8.218E+00  5.547E-02  1.777E+00
   1    4    8     3     4    1.2712E+00  2.2567E-01   1.0456E+00  0.000E+00  0.000E+00  0.000E+00  1.06682E+03  1.364E+00  7.455E+00  6.709E-02  1.682E+00
   1    5    8     3     5    1.0456E+00  1.5790E-01   8.8768E-01  0.000E+00  0.000E+00  0.000E+00  1.06362E+03  1.164E+00  6.655E+00  4.991E-02  1.582E+00
   1    6    8     3     6    8.8768E-01  5.5980E-02   8.3170E-01  0.000E+00  0.000E+00  0.000E+00  1.06158E+03  1.036E+00  6.145E+00  1.844E-02  1.518E+00
   1    5   10     4     1    1.0000E+01  9.0919E-02   9.9091E+00  0.000E+00  0.000E+00  0.000E+00  1.07836E+03  6.368E-01  1.000E+01  2.500E-02  1.212E+00
   1    5    9     4     2    9.9091E+00  1.8158E-01   9.7275E+00  0.000E+00  0.000E+00  0.000E+00  1.07154E+03  6.315E-01  1.000E+01  5.000E-02  1.211E+00
   1    6    8     4     3    9.7275E+00  1.2689E-01   9.6006E+00  0.000E+00  0.000E+00  0.000E+00  1.06381E+03  6.256E-01  1.000E+01  3.500E-02  1.209E+00
   1    6    8     5     1    1.0432E+01  2.2686E-01   1.0205E+01  0.000E+00  0.000E+00  0.000E+00  1.05868E+03  6.790E-01  1.542E+01  6.166E-02  1.226E+00
   1    7    7     5     2    1.0205E+01  2.7894E-01   9.9265E+00  0.000E+00  0.000E+00  0.000E+00  1.05417E+03  6.732E-01  1.519E+01  7.594E-02  1.224E+00
   1    8    7     5     3    9.9265E+00  1.9221E-01   9.7343E+00  0.000E+00  0.000E+00  0.000E+00  1.04992E+03  6.676E-01  1.497E+01  5.241E-02  1.223E+00
   1    8    6     5     4    9.7343E+00  1.3577E-01   9.5985E+00  0.000E+00  0.000E+00  0.000E+00  1.04691E+03  6.637E-01  1.482E+01  3.706E-02  1.221E+00
   1    9    6     6     1    7.0324E+01  3.1608E-01   7.0008E+01  0.000E+00  0.000E+00  0.000E+00  1.04500E+03  2.268E+00  1.200E+01  6.000E-02  1.756E+00
   1   10    7     6     2    7.0008E+01  3.1571E-01   6.9692E+01  0.000E+00  0.000E+00  0.000E+00  1.04044E+03  2.262E+00  1.200E+01  6.000E-02  1.754E+00
   1   11    7     6     3    6.9692E+01  3.1534E-01   6.9377E+01  0.000E+00  0.000E+00  0.000E+00  1.03589E+03  2.256E+00  1.200E+01  6.000E-02  1.752E+00
   1   12    7     6     4    6.9377E+01  3.1498E-01   6.9062E+01  0.000E+00  0.000E+00  0.000E+00  1.03134E+03  2.250E+00  1.200E+01  6.000E-02  1.750E+00
   1   13    7     6     5    6.9062E+01  2.4960E-02   6.9037E+01  0.000E+00  0.000E+00  0.000E+00  1.02816E+03  2.246E+00  1.200E+01  2.400E-02  3.467E-01
   1   14    9     7     1    1.5000E+02  1.3363E+00   1.4866E+02  0.000E+00  0.000E+00  0.000E+00  1.03987E+03  2.288E+00  5.529E+01  5.593E-01  7.964E-01
   1   13    8     7     2    1.4866E+02  1.8271E+00   1.4684E+02  0.000E+00  0.000E+00  0.000E+00  1.03478E+03  2.279E+00  5.526E+01  6.148E-01  9.907E-01
   1   13    7     7     3    1.4684E+02  1.4378E+00   1.4540E+02  0.000E+00  0.000E+00  0.000E+00  1.02969E+03  2.271E+00  5.522E+01  5.585E-01  8.582E-01
   1   13    6     8     1    2.1444E+02  1.0680E+00   2.1337E+02  0.000E+00  0.000E+00  0.000E+00  1.02509E+03  3.218E+00  4.666E+01  4.755E-01  7.488E-01
   1   13    5     8     2    2.1337E+02  2.5084E-01   2.1312E+02  0.000E+00  0.000E+00  0.000E+00  1.01884E+03  3.214E+00  4.660E+01  4.749E-01  1.761E-01
   1   13    4     8     3    2.1312E+02 -2.3837E+00   2.1550E+02  0.000E+00  0.000E+00  0.000E+00  1.01260E+03  3.220E+00  4.669E+01  4.758E+00 -1.670E-01
   1   13    3     8     4    2.1550E+02 -3.6402E+00   2.1914E+02  0.000E+00  0.000E+00  0.000E+00  1.00636E+03  3.237E+00  4.694E+01  4.783E+00 -2.537E-01
   1   13    2     8     5    2.1914E+02 -2.5604E+00   2.2170E+02  0.000E+00  0.000E+00  0.000E+00  1.00013E+03  3.254E+00  4.719E+01  4.808E+00 -1.775E-01
   1   13    1     8     6    2.2170E+02 -1.9015E+00   2.2360E+02  0.000E+00  0.000E+00  0.000E+00  9.95142E+02  3.267E+00  4.736E+01  2.896E+00 -2.189E-01
   1    8    6     9     1    0.0000E+00  0.0000E+00   0.0000E+00  0.000E+00  0.000E+00  0.000E+00  1.07875E+03  0.000E+00  4.000E+00  0.000E+00  1.000E+00
   1    8    5     9     2    0.0000E+00  0.0000E+00   0.0000E+00  0.000E+00  0.000E+00  0.000E+00  1.07825E+03  0.000E+00  4.000E+00  0.000E+00  1.000E+00





UNSATURATED ZONE PACKAGE VOLUMETRIC BUDGET FOR  TIME STEP    30 STRESS PERIOD   16
  ------------------------------------------------------------------------------



     CUMULATIVE VOLUMES      L**3       RATES FOR THIS TIME STEP      L**3/T
     ------------------                 ------------------------

           IN:                                      IN:
           ---                                      ---
        INFILTRATION =   525096369.1133          INFILTRATION =           0.8475

          OUT:                                     OUT:
          ----                                     ----
              UZF ET =   436445011.8406                UZF ET =           0.7500
        UZF RECHARGE =       73224.0000          UZF RECHARGE =       0.0000E+00

            IN - OUT =    88578133.2728              IN - OUT =       9.7500E-02

          STORAGE:                                 STORAGE:
          --------                                 --------
      STORAGE CHANGE =    88578097.8834        STORAGE CHANGE =       9.7500E-02

 PERCENT DISCREPANCY IS DIFFERENCE BETWEEN IN-OUT MINUS CHANGE IN STORAGE
 DIVIDED BY THE AVERAGE OF IN AND OUT TIMES 100

 PERCENT DISCREPANCY =           0.00     PERCENT DISCREPANCY =           0.00






1
  VOLUMETRIC BUDGET FOR AGRICULTURAL FIELDS AT  END OF TIME STEP   30, STRESS PERIOD  16
  ------------------------------------------------------------------------------

     CUMULATIVE VOLUMES      L**3       RATES FOR THIS TIME STEP      L**3/T
     ------------------                 ------------------------

           IN:                                      IN:
           ---                                      ---
               AG WELLS  =   151827360.0000                 AG WELLS  =           0.0000
      DIVERSION SEGMENTS =   339757888.0000        DIVERSION SEGMENTS =           0.0000
           GW IRRIGATION =           0.0000             GW IRRIGATION =           0.0000
           SW IRRIGATION =           0.0000             SW IRRIGATION =           0.0000
        SYSTEM LOSSES GW =           0.0000          SYSTEM LOSSES GW =           0.0000
        SYSTEM LOSSES SW =           0.0000          SYSTEM LOSSES SW =           0.0000

                TOTAL IN =   491585248.0000                  TOTAL IN =           0.0000

          OUT:                                     OUT:
          ----                                     ----
               AG WELLS  =           0.0000                 AG WELLS  =           0.0000
      DIVERSION SEGMENTS =           0.0000        DIVERSION SEGMENTS =           0.0000
           GW IRRIGATION =   151827360.0000             GW IRRIGATION =           0.0000
           SW IRRIGATION =   339764480.0000             SW IRRIGATION =           0.0000
        SYSTEM LOSSES GW =           0.0000          SYSTEM LOSSES GW =           0.0000
        SYSTEM LOSSES SW =           0.0000          SYSTEM LOSSES SW =           0.0000

               TOTAL OUT =   491591840.0000                 TOTAL OUT =           0.0000

                IN - OUT =       -6592.0000                  IN - OUT =           0.0000

     PERCENT DISCREPANCY =          -0.00         PERCENT DISCREPANCY =           0.00



1
  VOLUMETRIC BUDGET FOR ENTIRE MODEL AT END OF TIME STEP   30, STRESS PERIOD  16
  ------------------------------------------------------------------------------

     CUMULATIVE VOLUMES      L**3       RATES FOR THIS TIME STEP      L**3/T
     ------------------                 ------------------------

           IN:                                      IN:
           ---                                      ---
             STORAGE     =   265678720.0000               STORAGE     =           1.1558
       CONSTANT HEAD     =           0.0000         CONSTANT HEAD     =           0.0000
     HEAD DEP BOUNDS     =    11297383.0000       HEAD DEP BOUNDS     =           0.2858
      STREAM LEAKAGE     =   473241088.0000        STREAM LEAKAGE     =          13.2245
        UZF RECHARGE     =       73223.9531          UZF RECHARGE     =           0.0000
               GW ET     =           0.0000                 GW ET     =           0.0000
     SURFACE LEAKAGE     =           0.0000       SURFACE LEAKAGE     =           0.0000
           AG WELLS      =           0.0000             AG WELLS      =           0.0000

                TOTAL IN =   750290432.0000                  TOTAL IN =          14.6661

          OUT:                                     OUT:
          ----                                     ----
             STORAGE     =   161738144.0000               STORAGE     =           3.8815
       CONSTANT HEAD     =           0.0000         CONSTANT HEAD     =           0.0000
     HEAD DEP BOUNDS     =    11498192.0000       HEAD DEP BOUNDS     =           0.2963
      STREAM LEAKAGE     =   423676960.0000        STREAM LEAKAGE     =          10.4858
        UZF RECHARGE     =           0.0000          UZF RECHARGE     =           0.0000
               GW ET     =     1557360.2500                 GW ET     =       3.2870E-03
     SURFACE LEAKAGE     =           0.0000       SURFACE LEAKAGE     =           0.0000
           AG WELLS      =   151827360.0000             AG WELLS      =           0.0000

               TOTAL OUT =   750297984.0000                 TOTAL OUT =          14.6669

                IN - OUT =       -7552.0000                  IN - OUT =      -7.7724E-04

     PERCENT DISCREPANCY =          -0.00         PERCENT DISCREPANCY =          -0.01






         TIME SUMMARY AT END OF TIME STEP   30 IN STRESS PERIOD   16
                    SECONDS     MINUTES      HOURS       DAYS        YEARS
                    -----------------------------------------------------------
   TIME STEP LENGTH  87667.      1461.1      24.352      1.0147     2.77799E-03
 STRESS PERIOD TIME 2.63000E+06  43833.      730.56      30.440     8.33397E-02
         TOTAL TIME 3.95364E+07 6.58940E+05  10982.      457.60      1.2528    
1
1
                            STRESS PERIOD NO.   17, LENGTH =   2630000.    
                            -----------------------------------------------

                              NUMBER OF TIME STEPS =    30

                               MULTIPLIER FOR DELT =     1.000

                            INITIAL TIME STEP SIZE =   87666.66    

 REUSING NON-PARAMETER GHB CELLS FROM LAST STRESS PERIOD

      2 GHB CELLS

 REUSING STREAM SEGMENT DATA FROM LAST STRESS PERIOD



            AREAL INFILTRATION RATE
 READING ON UNIT   19 WITH FORMAT: (FREE)              

            1           2           3           4           5           6           7           8           9          10
 ........................................................................................................................
   1   1.0000E-10  2.0000E-10   0.000       0.000       0.000       0.000       0.000       0.000       0.000       0.000    
   2   2.0000E-10  1.0000E-10  2.0000E-10   0.000       0.000      8.0000E-10  8.0000E-10  5.0000E-10   0.000       0.000    
   3    0.000      5.0000E-10  1.0000E-10  1.0000E-10  8.0000E-10  8.0000E-10  5.0000E-10  5.0000E-10   0.000       0.000    
   4   8.0000E-10  5.0000E-10  1.0000E-10  1.0000E-10  1.0000E-10  1.0000E-10  1.0000E-10  1.0000E-10  2.0000E-10   0.000    
   5   8.0000E-10  5.0000E-10  1.0000E-10  1.0000E-10  1.0000E-10  1.0000E-10  1.0000E-10  1.0000E-10  1.0000E-10  1.0000E-10
   6   8.0000E-10  5.0000E-10  5.0000E-10  2.0000E-10  2.0000E-10  1.0000E-10  1.0000E-10  1.0000E-10  1.0000E-10  5.0000E-10
   7   8.0000E-10  5.0000E-10  5.0000E-10  2.0000E-10  2.0000E-10  1.0000E-10  1.0000E-10  2.0000E-10  2.0000E-10   0.000    
   8    0.000      5.0000E-10  5.0000E-10  2.0000E-10  2.0000E-10  1.0000E-10  1.0000E-10  2.0000E-10  5.0000E-10   0.000    
   9    0.000      5.0000E-10  5.0000E-10  2.0000E-10  2.0000E-10  1.0000E-10  1.0000E-10  2.0000E-10  5.0000E-10   0.000    
  10    0.000      5.0000E-10  5.0000E-10  2.0000E-10  2.0000E-10  1.0000E-10  1.0000E-10  2.0000E-10  5.0000E-10  8.0000E-10
  11    0.000      1.0000E-10  1.0000E-10  1.0000E-10  1.0000E-10  1.0000E-10  1.0000E-10  2.0000E-10  5.0000E-10   0.000    
  12   1.0000E-10  1.0000E-10  1.0000E-10  1.0000E-10  1.0000E-10  1.0000E-10  1.0000E-10  1.0000E-10  2.0000E-10   0.000    
  13   1.0000E-10  1.0000E-10  2.0000E-10  2.0000E-10  2.0000E-10  2.0000E-10  2.0000E-10  1.0000E-10  1.0000E-10   0.000    
  14    0.000      2.0000E-10  5.0000E-10  5.0000E-10  5.0000E-10  5.0000E-10  5.0000E-10  2.0000E-10  1.0000E-10   0.000    
  15    0.000       0.000      8.0000E-10  8.0000E-10  8.0000E-10  8.0000E-10   0.000       0.000       0.000       0.000    

                  ET RATE =  2.500000E-08

 USING ET EXTINCTION DEPTH FROM PREVIOUS STRESS PERIOD. CURRENT PERIOD IS:      17

 USING EXTINCTION WATER CONTENT FROM PREVIOUS STRESS PERIOD. CURRENT PERIOD IS:      17

 USING AIR ENTRY PRESSURE FROM PREVIOUS STRESS PERIOD. CURRENT PERIOD IS:      17

 USING ROOT PRESSURE HEAD FROM PREVIOUS STRESS PERIOD. CURRENT PERIOD IS:      17

 USING ROOT ACTIVITY FROM PREVIOUS STRESS PERIOD. CURRENT PERIOD IS:      17

 PROCESSING AG STRESS PERIOD DATA

 READING AG STRESS PERIOD DATA

 READING IRRIGATION SEGMENT

 READING IRRIGATION WELL

 READING SUPPLEMENTAL WELL

 END PROCESSING AG STRESS PERIOD DATA OPTIONS
 
 SOLVING FOR HEAD 
                                                   Max.-Head-Change                         Max.-Flux-Residual
  Residual-Control   Outer-Iter.   Inner-Iter.     Column Row Layer    Maximum-Head-Change  Column Row Layer    Maximum-Flux-Residual          L2-NORM 
          0                 1           2             4   13     1      -0.6815998289E-02       4   13    1        -0.4020846316E+00      0.8794394692E+00
          0                 2           2             4    7     1      -0.1189090449E-01       4    7    1        -0.6386430046E+00      0.1561795475E+01
          0                 3           2             4    7     1       0.1203991793E-01       4    7    1         0.6647048904E+00      0.1633119522E+01
          0                 4           2             4    7     1      -0.4790820015E-03       4    7    1        -0.2718661502E-01      0.6778848884E-01
          0                 5           1             4   13     1      -0.8463910017E-05       4   13    1        -0.5254750649E-03      0.1201763331E-02

    ------------------------------------------------
       NWT REQUIRED            5 OUTER ITERATIONS 
       AND A TOTAL OF          9 INNER ITERATIONS.
    ------------------------------------------------

 NO OUTPUT CONTROL FOR STRESS PERIOD   17   TIME STEP    1
 
 SOLVING FOR HEAD 
                                                   Max.-Head-Change                         Max.-Flux-Residual
  Residual-Control   Outer-Iter.   Inner-Iter.     Column Row Layer    Maximum-Head-Change  Column Row Layer    Maximum-Flux-Residual          L2-NORM 
          0                 1           2             3   13     1      -0.5727764606E-02       4   13    1        -0.3356472970E+00      0.8151987927E+00
          0                 2           2             4   13     1       0.5489429259E-03       4   13    1         0.3329416792E-01      0.8072679432E-01
          0                 3           1             4   13     1      -0.3694457476E-04       4   13    1        -0.2303963190E-02      0.5578219707E-02

    ------------------------------------------------
       NWT REQUIRED            3 OUTER ITERATIONS 
       AND A TOTAL OF          5 INNER ITERATIONS.
    ------------------------------------------------

 NO OUTPUT CONTROL FOR STRESS PERIOD   17   TIME STEP    2
 
 SOLVING FOR HEAD 
                                                   Max.-Head-Change                         Max.-Flux-Residual
  Residual-Control   Outer-Iter.   Inner-Iter.     Column Row Layer    Maximum-Head-Change  Column Row Layer    Maximum-Flux-Residual          L2-NORM 
          0                 1           2             3   13     1      -0.5116077599E-02       3   13    1        -0.2979898231E+00      0.7782361910E+00
          0                 2           2             4    7     1      -0.1184585807E-01       4    7    1        -0.6362228932E+00      0.1556612841E+01
          0                 3           2             4    7     1       0.1199735519E-01       4    7    1         0.6623551457E+00      0.1627290868E+01
          0                 4           2             4    7     1      -0.4773883727E-03       4    7    1        -0.2709050928E-01      0.6753541150E-01
          0                 5           1             4   13     1      -0.8361783252E-05       4   13    1        -0.5191162327E-03      0.1194401560E-02

    ------------------------------------------------
       NWT REQUIRED            5 OUTER ITERATIONS 
       AND A TOTAL OF          9 INNER ITERATIONS.
    ------------------------------------------------

 NO OUTPUT CONTROL FOR STRESS PERIOD   17   TIME STEP    3
 
 SOLVING FOR HEAD 
                                                   Max.-Head-Change                         Max.-Flux-Residual
  Residual-Control   Outer-Iter.   Inner-Iter.     Column Row Layer    Maximum-Head-Change  Column Row Layer    Maximum-Flux-Residual          L2-NORM 
          0                 1           2             3   13     1      -0.4322608113E-02       3   13    1        -0.2518589106E+00      0.7325421073E+00
          0                 2           2             3   13     1       0.4109371668E-03       3   13    1         0.2461749630E-01      0.7274948760E-01
          0                 3           1             3   13     1      -0.2708787946E-04       3   13    1        -0.1668349463E-02      0.5046441181E-02

    ------------------------------------------------
       NWT REQUIRED            3 OUTER ITERATIONS 
       AND A TOTAL OF          5 INNER ITERATIONS.
    ------------------------------------------------

 NO OUTPUT CONTROL FOR STRESS PERIOD   17   TIME STEP    4
 
 SOLVING FOR HEAD 
                                                   Max.-Head-Change                         Max.-Flux-Residual
  Residual-Control   Outer-Iter.   Inner-Iter.     Column Row Layer    Maximum-Head-Change  Column Row Layer    Maximum-Flux-Residual          L2-NORM 
          0                 1           2             3   13     1      -0.3859292403E-02       3   13    1        -0.2248708565E+00      0.7088204304E+00
          0                 2           2             4    7     1      -0.1184296577E-01       4    7    1        -0.6360667203E+00      0.1556967013E+01
          0                 3           2             4    7     1       0.1199859725E-01       4    7    1         0.6624237859E+00      0.1627416221E+01
          0                 4           2             4    7     1      -0.4774377963E-03       4    7    1        -0.2709331672E-01      0.6753113214E-01
          0                 5           1             4   13     1      -0.8284550491E-05       4   13    1        -0.5143007347E-03      0.1190920311E-02

    ------------------------------------------------
       NWT REQUIRED            5 OUTER ITERATIONS 
       AND A TOTAL OF          9 INNER ITERATIONS.
    ------------------------------------------------

 NO OUTPUT CONTROL FOR STRESS PERIOD   17   TIME STEP    5
 
 SOLVING FOR HEAD 
                                                   Max.-Head-Change                         Max.-Flux-Residual
  Residual-Control   Outer-Iter.   Inner-Iter.     Column Row Layer    Maximum-Head-Change  Column Row Layer    Maximum-Flux-Residual          L2-NORM 
          0                 1           2             1    1     1       0.3818143526E-02       1    1    1         0.1982006029E+00      0.6771347907E+00
          0                 2           2             1    1     1      -0.3714016626E-03       1    1    1        -0.1982008759E-01      0.6741467611E-01
          0                 3           1             1    1     1       0.2529107267E-04       1    1    1         0.1387406481E-02      0.4691304776E-02

    ------------------------------------------------
       NWT REQUIRED            3 OUTER ITERATIONS 
       AND A TOTAL OF          5 INNER ITERATIONS.
    ------------------------------------------------

 NO OUTPUT CONTROL FOR STRESS PERIOD   17   TIME STEP    6
 
 SOLVING FOR HEAD 
                                                   Max.-Head-Change                         Max.-Flux-Residual
  Residual-Control   Outer-Iter.   Inner-Iter.     Column Row Layer    Maximum-Head-Change  Column Row Layer    Maximum-Flux-Residual          L2-NORM 
          0                 1           2             1    1     1       0.3814301524E-02       1    1    1         0.1980007093E+00      0.6624416230E+00
          0                 2           2             4    7     1      -0.1183927498E-01       4    7    1        -0.6358677680E+00      0.1557152994E+01
          0                 3           2             4    7     1       0.1199891264E-01       4    7    1         0.6624412710E+00      0.1627425788E+01
          0                 4           2             4    7     1      -0.4774503454E-03       4    7    1        -0.2709403183E-01      0.6752404801E-01
          0                 5           1             4   13     1      -0.8253835389E-05       4   13    1        -0.5123939991E-03      0.1189128328E-02

    ------------------------------------------------
       NWT REQUIRED            5 OUTER ITERATIONS 
       AND A TOTAL OF          9 INNER ITERATIONS.
    ------------------------------------------------

 NO OUTPUT CONTROL FOR STRESS PERIOD   17   TIME STEP    7
 
 SOLVING FOR HEAD 
                                                   Max.-Head-Change                         Max.-Flux-Residual
  Residual-Control   Outer-Iter.   Inner-Iter.     Column Row Layer    Maximum-Head-Change  Column Row Layer    Maximum-Flux-Residual          L2-NORM 
          0                 1           2             1    1     1       0.3810496602E-02       1    1    1         0.1978027435E+00      0.6410072413E+00
          0                 2           2             1    1     1      -0.3706578217E-03       1    1    1        -0.1978030142E-01      0.6394046633E-01
          0                 3           1             1    1     1       0.2524041938E-04       1    1    1         0.1384621439E-02      0.4461429757E-02

    ------------------------------------------------
       NWT REQUIRED            3 OUTER ITERATIONS 
       AND A TOTAL OF          5 INNER ITERATIONS.
    ------------------------------------------------

 NO OUTPUT CONTROL FOR STRESS PERIOD   17   TIME STEP    8
 
 SOLVING FOR HEAD 
                                                   Max.-Head-Change                         Max.-Flux-Residual
  Residual-Control   Outer-Iter.   Inner-Iter.     Column Row Layer    Maximum-Head-Change  Column Row Layer    Maximum-Flux-Residual          L2-NORM 
          0                 1           2             1    1     1       0.3806681061E-02       1    1    1         0.1976042290E+00      0.6321025551E+00
          0                 2           2             4    7     1      -0.1183564694E-01       4    7    1        -0.6356721344E+00      0.1557277087E+01
          0                 3           2             4    7     1       0.1199922477E-01       4    7    1         0.6624585712E+00      0.1627442533E+01
          0                 4           2             4    7     1      -0.4774627656E-03       4    7    1        -0.2709473944E-01      0.6751881593E-01
          0                 5           1             4   13     1      -0.8209398917E-05       4   13    1        -0.5096292989E-03      0.1186338698E-02

    ------------------------------------------------
       NWT REQUIRED            5 OUTER ITERATIONS 
       AND A TOTAL OF          9 INNER ITERATIONS.
    ------------------------------------------------

 NO OUTPUT CONTROL FOR STRESS PERIOD   17   TIME STEP    9
 
 SOLVING FOR HEAD 
                                                   Max.-Head-Change                         Max.-Flux-Residual
  Residual-Control   Outer-Iter.   Inner-Iter.     Column Row Layer    Maximum-Head-Change  Column Row Layer    Maximum-Flux-Residual          L2-NORM 
          0                 1           2             1    1     1       0.3802879941E-02       1    1    1         0.1974064655E+00      0.6179332034E+00
          0                 2           2             1    1     1      -0.3699169251E-03       1    1    1        -0.1974067340E-01      0.6171760064E-01
          0                 3           1             1    1     1       0.2518996751E-04       1    1    1         0.1381847476E-02      0.4313110499E-02

    ------------------------------------------------
       NWT REQUIRED            3 OUTER ITERATIONS 
       AND A TOTAL OF          5 INNER ITERATIONS.
    ------------------------------------------------

 NO OUTPUT CONTROL FOR STRESS PERIOD   17   TIME STEP   10
 
 SOLVING FOR HEAD 
                                                   Max.-Head-Change                         Max.-Flux-Residual
  Residual-Control   Outer-Iter.   Inner-Iter.     Column Row Layer    Maximum-Head-Change  Column Row Layer    Maximum-Flux-Residual          L2-NORM 
          0                 1           2             1    1     1       0.3799113169E-02       1    1    1         0.1972104874E+00      0.6124708961E+00
          0                 2           2             4    7     1      -0.1183207377E-01       4    7    1        -0.6354794660E+00      0.1557333777E+01
          0                 3           2             4    7     1       0.1199952772E-01       4    7    1         0.6624753637E+00      0.1627464255E+01
          0                 4           2             4    7     1      -0.4774748204E-03       4    7    1        -0.2709542625E-01      0.6751480145E-01
          0                 5           1             4   13     1      -0.8181004042E-05       4   13    1        -0.5078667200E-03      0.1184785852E-02

    ------------------------------------------------
       NWT REQUIRED            5 OUTER ITERATIONS 
       AND A TOTAL OF          9 INNER ITERATIONS.
    ------------------------------------------------

 NO OUTPUT CONTROL FOR STRESS PERIOD   17   TIME STEP   11
 
 SOLVING FOR HEAD 
                                                   Max.-Head-Change                         Max.-Flux-Residual
  Residual-Control   Outer-Iter.   Inner-Iter.     Column Row Layer    Maximum-Head-Change  Column Row Layer    Maximum-Flux-Residual          L2-NORM 
          0                 1           2             1    1     1       0.3795338091E-02       1    1    1         0.1970140825E+00      0.6033295189E+00
          0                 2           2             1    1     1      -0.3691833055E-03       1    1    1        -0.1970143486E-01      0.6030397835E-01
          0                 3           1             1    1     1       0.2514001099E-04       1    1    1         0.1379100806E-02      0.4218533658E-02

    ------------------------------------------------
       NWT REQUIRED            3 OUTER ITERATIONS 
       AND A TOTAL OF          5 INNER ITERATIONS.
    ------------------------------------------------

 NO OUTPUT CONTROL FOR STRESS PERIOD   17   TIME STEP   12
 
 SOLVING FOR HEAD 
                                                   Max.-Head-Change                         Max.-Flux-Residual
  Residual-Control   Outer-Iter.   Inner-Iter.     Column Row Layer    Maximum-Head-Change  Column Row Layer    Maximum-Flux-Residual          L2-NORM 
          0                 1           2             1    1     1       0.3791574715E-02       1    1    1         0.1968182854E+00      0.5997753322E+00
          0                 2           2             4    7     1      -0.1182858134E-01       4    7    1        -0.6352911646E+00      0.1557333533E+01
          0                 3           2             4    7     1       0.1199982324E-01       4    7    1         0.6624917466E+00      0.1627490322E+01
          0                 4           2             4    7     1      -0.4774865800E-03       4    7    1        -0.2709609634E-01      0.6751154450E-01
          0                 5           1             4   13     1      -0.8165906772E-05       4   13    1        -0.5069246972E-03      0.1183294724E-02

    ------------------------------------------------
       NWT REQUIRED            5 OUTER ITERATIONS 
       AND A TOTAL OF          9 INNER ITERATIONS.
    ------------------------------------------------

 NO OUTPUT CONTROL FOR STRESS PERIOD   17   TIME STEP   13
 
 SOLVING FOR HEAD 
                                                   Max.-Head-Change                         Max.-Flux-Residual
  Residual-Control   Outer-Iter.   Inner-Iter.     Column Row Layer    Maximum-Head-Change  Column Row Layer    Maximum-Flux-Residual          L2-NORM 
          0                 1           2             1    1     1       0.3787848003E-02       1    1    1         0.1966243959E+00      0.5940479617E+00
          0                 2           2             1    1     1      -0.3684547205E-03       1    1    1        -0.1966246600E-01      0.5939907768E-01
          0                 3           1             1    1     1       0.2509039646E-04       1    1    1         0.1376372950E-02      0.4157320376E-02

    ------------------------------------------------
       NWT REQUIRED            3 OUTER ITERATIONS 
       AND A TOTAL OF          5 INNER ITERATIONS.
    ------------------------------------------------

 NO OUTPUT CONTROL FOR STRESS PERIOD   17   TIME STEP   14
 
 SOLVING FOR HEAD 
                                                   Max.-Head-Change                         Max.-Flux-Residual
  Residual-Control   Outer-Iter.   Inner-Iter.     Column Row Layer    Maximum-Head-Change  Column Row Layer    Maximum-Flux-Residual          L2-NORM 
          0                 1           2             1    1     1       0.3784110301E-02       1    1    1         0.1964299369E+00      0.5914084107E+00
          0                 2           2             4    7     1      -0.1182514210E-01       4    7    1        -0.6351057199E+00      0.1557277703E+01
          0                 3           2             4    7     1       0.1200011054E-01       4    7    1         0.6625076738E+00      0.1627518661E+01
          0                 4           2             4    7     1      -0.4774980117E-03       4    7    1        -0.2709674775E-01      0.6750965851E-01
          0                 5           1             4   13     1      -0.8140258489E-05       4   13    1        -0.5053308705E-03      0.1182429498E-02

    ------------------------------------------------
       NWT REQUIRED            5 OUTER ITERATIONS 
       AND A TOTAL OF          9 INNER ITERATIONS.
    ------------------------------------------------

 NO OUTPUT CONTROL FOR STRESS PERIOD   17   TIME STEP   15
 
 SOLVING FOR HEAD 
                                                   Max.-Head-Change                         Max.-Flux-Residual
  Residual-Control   Outer-Iter.   Inner-Iter.     Column Row Layer    Maximum-Head-Change  Column Row Layer    Maximum-Flux-Residual          L2-NORM 
          0                 1           2             1    1     1       0.3780386591E-02       1    1    1         0.1962362082E+00      0.5879899670E+00
          0                 2           2             1    1     1      -0.3677289254E-03       1    1    1        -0.1962364699E-01      0.5879884847E-01
          0                 3           1             1    1     1       0.2504097293E-04       1    1    1         0.1373655640E-02      0.4115905772E-02

    ------------------------------------------------
       NWT REQUIRED            3 OUTER ITERATIONS 
       AND A TOTAL OF          5 INNER ITERATIONS.
    ------------------------------------------------

 NO OUTPUT CONTROL FOR STRESS PERIOD   17   TIME STEP   16
 
 SOLVING FOR HEAD 
                                                   Max.-Head-Change                         Max.-Flux-Residual
  Residual-Control   Outer-Iter.   Inner-Iter.     Column Row Layer    Maximum-Head-Change  Column Row Layer    Maximum-Flux-Residual          L2-NORM 
          0                 1           2             1    1     1       0.3776674317E-02       1    1    1         0.1960430752E+00      0.5856811553E+00
          0                 2           2             4    7     1      -0.1182175128E-01       4    7    1        -0.6349228740E+00      0.1557177803E+01
          0                 3           2             4    7     1       0.1200038714E-01       4    7    1         0.6625230081E+00      0.1627663797E+01
          0                 4           2             4    7     1      -0.4775090177E-03       4    7    1        -0.2709737492E-01      0.6731863540E-01
          0                 5           1             2   13     1      -0.7404432412E-05       2   13    1        -0.4417590662E-03      0.1092996600E-02

    ------------------------------------------------
       NWT REQUIRED            5 OUTER ITERATIONS 
       AND A TOTAL OF          9 INNER ITERATIONS.
    ------------------------------------------------

 NO OUTPUT CONTROL FOR STRESS PERIOD   17   TIME STEP   17
 
 SOLVING FOR HEAD 
                                                   Max.-Head-Change                         Max.-Flux-Residual
  Residual-Control   Outer-Iter.   Inner-Iter.     Column Row Layer    Maximum-Head-Change  Column Row Layer    Maximum-Flux-Residual          L2-NORM 
          0                 1           2             1    1     1       0.3772975923E-02       1    1    1         0.1958506645E+00      0.5838252580E+00
          0                 2           2             1    1     1      -0.3670080661E-03       1    1    1        -0.1958509241E-01      0.5837983362E-01
          0                 3           1             1    1     1       0.2499188500E-04       1    1    1         0.1370956825E-02      0.4086342000E-02

    ------------------------------------------------
       NWT REQUIRED            3 OUTER ITERATIONS 
       AND A TOTAL OF          5 INNER ITERATIONS.
    ------------------------------------------------

 NO OUTPUT CONTROL FOR STRESS PERIOD   17   TIME STEP   18
 
 SOLVING FOR HEAD 
                                                   Max.-Head-Change                         Max.-Flux-Residual
  Residual-Control   Outer-Iter.   Inner-Iter.     Column Row Layer    Maximum-Head-Change  Column Row Layer    Maximum-Flux-Residual          L2-NORM 
          0                 1           2             1    1     1       0.3769288860E-02       1    1    1         0.1956588445E+00      0.5815104497E+00
          0                 2           2             4    7     1      -0.1181843925E-01       4    7    1        -0.6347443090E+00      0.1557039352E+01
          0                 3           2             4    7     1       0.1200065941E-01       4    7    1         0.6625381056E+00      0.1627887724E+01
          0                 4           2             4    7     1      -0.4775198523E-03       4    7    1        -0.2709799244E-01      0.6700865838E-01
          0                 5           1             4    7     1       0.5888022881E-05       4    7    1         0.3434148684E-03      0.9353646901E-03

    ------------------------------------------------
       NWT REQUIRED            5 OUTER ITERATIONS 
       AND A TOTAL OF          9 INNER ITERATIONS.
    ------------------------------------------------

 NO OUTPUT CONTROL FOR STRESS PERIOD   17   TIME STEP   19
 
 SOLVING FOR HEAD 
                                                   Max.-Head-Change                         Max.-Flux-Residual
  Residual-Control   Outer-Iter.   Inner-Iter.     Column Row Layer    Maximum-Head-Change  Column Row Layer    Maximum-Flux-Residual          L2-NORM 
          0                 1           2             1    1     1       0.3765615543E-02       1    1    1         0.1954677406E+00      0.5807211245E+00
          0                 2           2             1    1     1      -0.3662920984E-03       1    1    1        -0.1954679979E-01      0.5806209822E-01
          0                 3           1             1    1     1       0.2494313030E-04       1    1    1         0.1368276349E-02      0.4063447673E-02

    ------------------------------------------------
       NWT REQUIRED            3 OUTER ITERATIONS 
       AND A TOTAL OF          5 INNER ITERATIONS.
    ------------------------------------------------

 NO OUTPUT CONTROL FOR STRESS PERIOD   17   TIME STEP   20
 
 SOLVING FOR HEAD 
                                                   Max.-Head-Change                         Max.-Flux-Residual
  Residual-Control   Outer-Iter.   Inner-Iter.     Column Row Layer    Maximum-Head-Change  Column Row Layer    Maximum-Flux-Residual          L2-NORM 
          0                 1           2             1    1     1       0.3761953422E-02       1    1    1         0.1952772212E+00      0.5782338621E+00
          0                 2           2             4    7     1      -0.1181517500E-01       4    7    1        -0.6345683056E+00      0.1556871359E+01
          0                 3           2             4    7     1       0.1200092417E-01       4    7    1         0.6625527863E+00      0.1627956231E+01
          0                 4           2             4    7     1      -0.4775303877E-03       4    7    1        -0.2709859289E-01      0.6695988050E-01
          0                 5           1             4    7     1       0.5888152818E-05       4    7    1         0.3434224707E-03      0.9080424713E-03

    ------------------------------------------------
       NWT REQUIRED            5 OUTER ITERATIONS 
       AND A TOTAL OF          9 INNER ITERATIONS.
    ------------------------------------------------

 NO OUTPUT CONTROL FOR STRESS PERIOD   17   TIME STEP   21
 
 SOLVING FOR HEAD 
                                                   Max.-Head-Change                         Max.-Flux-Residual
  Residual-Control   Outer-Iter.   Inner-Iter.     Column Row Layer    Maximum-Head-Change  Column Row Layer    Maximum-Flux-Residual          L2-NORM 
          0                 1           2             1    1     1       0.3758304912E-02       1    1    1         0.1950874101E+00      0.5781775834E+00
          0                 2           2             1    1     1      -0.3655809700E-03       1    1    1        -0.1950876653E-01      0.5779806497E-01
          0                 3           1             1    1     1       0.2489470506E-04       1    1    1         0.1365614008E-02      0.4044208144E-02

    ------------------------------------------------
       NWT REQUIRED            3 OUTER ITERATIONS 
       AND A TOTAL OF          5 INNER ITERATIONS.
    ------------------------------------------------

 NO OUTPUT CONTROL FOR STRESS PERIOD   17   TIME STEP   22
 
 SOLVING FOR HEAD 
                                                   Max.-Head-Change                         Max.-Flux-Residual
  Residual-Control   Outer-Iter.   Inner-Iter.     Column Row Layer    Maximum-Head-Change  Column Row Layer    Maximum-Flux-Residual          L2-NORM 
          0                 1           2             1    1     1       0.3754667498E-02       1    1    1         0.1948981773E+00      0.5754338467E+00
          0                 2           2             4    7     1      -0.1181198367E-01       4    7    1        -0.6343962675E+00      0.1556677353E+01
          0                 3           2             4    7     1       0.1200118206E-01       4    7    1         0.6625670890E+00      0.1627993371E+01
          0                 4           2             4    7     1      -0.4775406485E-03       4    7    1        -0.2709917785E-01      0.6696113959E-01
          0                 5           1             4    7     1       0.5888279171E-05       4    7    1         0.3434298687E-03      0.9080123550E-03

    ------------------------------------------------
       NWT REQUIRED            5 OUTER ITERATIONS 
       AND A TOTAL OF          9 INNER ITERATIONS.
    ------------------------------------------------

 NO OUTPUT CONTROL FOR STRESS PERIOD   17   TIME STEP   23
 
 SOLVING FOR HEAD 
                                                   Max.-Head-Change                         Max.-Flux-Residual
  Residual-Control   Outer-Iter.   Inner-Iter.     Column Row Layer    Maximum-Head-Change  Column Row Layer    Maximum-Flux-Residual          L2-NORM 
          0                 1           2             1    1     1       0.3751043566E-02       1    1    1         0.1947096469E+00      0.5758964266E+00
          0                 2           2             1    1     1      -0.3648746361E-03       1    1    1        -0.1947099001E-01      0.5755932096E-01
          0                 3           1             1    1     1       0.2484660618E-04       1    1    1         0.1362969649E-02      0.4026311430E-02

    ------------------------------------------------
       NWT REQUIRED            3 OUTER ITERATIONS 
       AND A TOTAL OF          5 INNER ITERATIONS.
    ------------------------------------------------

 NO OUTPUT CONTROL FOR STRESS PERIOD   17   TIME STEP   24
 
 SOLVING FOR HEAD 
                                                   Max.-Head-Change                         Max.-Flux-Residual
  Residual-Control   Outer-Iter.   Inner-Iter.     Column Row Layer    Maximum-Head-Change  Column Row Layer    Maximum-Flux-Residual          L2-NORM 
          0                 1           2             1    1     1       0.3747430613E-02       1    1    1         0.1945216888E+00      0.5728824084E+00
          0                 2           2             4    7     1      -0.1180883942E-01       4    7    1        -0.6342267217E+00      0.1556466200E+01
          0                 3           2             4    7     1       0.1200143346E-01       4    7    1         0.6625810297E+00      0.1628030244E+01
          0                 4           2             4    7     1      -0.4775506522E-03       4    7    1        -0.2709974803E-01      0.6696260633E-01
          0                 5           1             4    7     1       0.5888402835E-05       4    7    1         0.3434371106E-03      0.9082475717E-03

    ------------------------------------------------
       NWT REQUIRED            5 OUTER ITERATIONS 
       AND A TOTAL OF          9 INNER ITERATIONS.
    ------------------------------------------------

 NO OUTPUT CONTROL FOR STRESS PERIOD   17   TIME STEP   25
 
 SOLVING FOR HEAD 
                                                   Max.-Head-Change                         Max.-Flux-Residual
  Residual-Control   Outer-Iter.   Inner-Iter.     Column Row Layer    Maximum-Head-Change  Column Row Layer    Maximum-Flux-Residual          L2-NORM 
          0                 1           2             1    1     1       0.3743831013E-02       1    1    1         0.1943344263E+00      0.5737027006E+00
          0                 2           2             1    1     1      -0.3641730478E-03       1    1    1        -0.1943346774E-01      0.5732942205E-01
          0                 3           1             1    1     1       0.2479883084E-04       1    1    1         0.1360343076E-02      0.4009358071E-02

    ------------------------------------------------
       NWT REQUIRED            3 OUTER ITERATIONS 
       AND A TOTAL OF          5 INNER ITERATIONS.
    ------------------------------------------------

 NO OUTPUT CONTROL FOR STRESS PERIOD   17   TIME STEP   26
 
 SOLVING FOR HEAD 
                                                   Max.-Head-Change                         Max.-Flux-Residual
  Residual-Control   Outer-Iter.   Inner-Iter.     Column Row Layer    Maximum-Head-Change  Column Row Layer    Maximum-Flux-Residual          L2-NORM 
          0                 1           2             1    1     1       0.3740242279E-02       1    1    1         0.1941477302E+00      0.5704199007E+00
          0                 2           2             4    7     1      -0.1180576565E-01       4    7    1        -0.6340610234E+00      0.1556239439E+01
          0                 3           2             4    7     1       0.1200167889E-01       4    7    1         0.6625946437E+00      0.1628066820E+01
          0                 4           2             4    7     1      -0.4775604185E-03       4    7    1        -0.2710030486E-01      0.6696381789E-01
          0                 5           1             4    7     1       0.5888522915E-05       4    7    1         0.3434441546E-03      0.9086132510E-03

    ------------------------------------------------
       NWT REQUIRED            5 OUTER ITERATIONS 
       AND A TOTAL OF          9 INNER ITERATIONS.
    ------------------------------------------------

 NO OUTPUT CONTROL FOR STRESS PERIOD   17   TIME STEP   27
 
 SOLVING FOR HEAD 
                                                   Max.-Head-Change                         Max.-Flux-Residual
  Residual-Control   Outer-Iter.   Inner-Iter.     Column Row Layer    Maximum-Head-Change  Column Row Layer    Maximum-Flux-Residual          L2-NORM 
          0                 1           2             1    1     1       0.3736666771E-02       1    1    1         0.1939617231E+00      0.5715130272E+00
          0                 2           2             1    1     1      -0.3634761592E-03       1    1    1        -0.1939619720E-01      0.5710084482E-01
          0                 3           1             1    1     1       0.2475137525E-04       1    1    1         0.1357734150E-02      0.3992411076E-02

    ------------------------------------------------
       NWT REQUIRED            3 OUTER ITERATIONS 
       AND A TOTAL OF          5 INNER ITERATIONS.
    ------------------------------------------------

 NO OUTPUT CONTROL FOR STRESS PERIOD   17   TIME STEP   28
 
 SOLVING FOR HEAD 
                                                   Max.-Head-Change                         Max.-Flux-Residual
  Residual-Control   Outer-Iter.   Inner-Iter.     Column Row Layer    Maximum-Head-Change  Column Row Layer    Maximum-Flux-Residual          L2-NORM 
          0                 1           2             1    1     1       0.3733102041E-02       1    1    1         0.1937762764E+00      0.5679788802E+00
          0                 2           2             4    7     1      -0.1180273741E-01       4    7    1        -0.6338977733E+00      0.1556000424E+01
          0                 3           2             4    7     1       0.1200191990E-01       4    7    1         0.6626080118E+00      0.1628103592E+01
          0                 4           2             4    7     1      -0.4775700081E-03       4    7    1        -0.2710085162E-01      0.6696579844E-01
          0                 5           1             2   13     1      -0.8396885603E-05       2   13    1        -0.5188109581E-03      0.1031122475E-02

    ------------------------------------------------
       NWT REQUIRED            5 OUTER ITERATIONS 
       AND A TOTAL OF          9 INNER ITERATIONS.
    ------------------------------------------------

 NO OUTPUT CONTROL FOR STRESS PERIOD   17   TIME STEP   29
 
 SOLVING FOR HEAD 
                                                   Max.-Head-Change                         Max.-Flux-Residual
  Residual-Control   Outer-Iter.   Inner-Iter.     Column Row Layer    Maximum-Head-Change  Column Row Layer    Maximum-Flux-Residual          L2-NORM 
          0                 1           2             1    1     1       0.3260009205E-02       1    1    1         0.1692017226E+00      0.5470895777E+00
          0                 2           2             1    1     1      -0.3171102569E-03       1    1    1        -0.1692018934E-01      0.5459948390E-01
          0                 3           1             1    1     1       0.2159403026E-04       1    1    1         0.1184413596E-02      0.3810719997E-02

    ------------------------------------------------
       NWT REQUIRED            3 OUTER ITERATIONS 
       AND A TOTAL OF          5 INNER ITERATIONS.
    ------------------------------------------------

 NO OUTPUT CONTROL FOR STRESS PERIOD   17   TIME STEP   30



 STREAM LISTING     PERIOD     17   STEP       30

 LAYER ROW COL. STREAM  RCH.  FLOW INTO     FLOW TO   FLOW OUT OF   OVRLND.     DIRECT     STREAM       STREAM     STREAM     STREAM   STREAMBED  STREAMBED
                SEG.NO.  NO.  STRM. RCH.    AQUIFER    STRM. RCH.    RUNOFF     PRECIP       ET          HEAD       DEPTH      WIDTH   CONDCTNC.   GRADIENT

   1    1    1     1     1    4.9431E+01  3.3436E-01   4.9097E+01  0.000E+00  0.000E+00  0.000E+00  1.09444E+03  1.395E+00  1.690E+01  7.607E-02  1.465E+00
   1    2    2     1     2    4.9097E+01  5.1808E-01   4.8579E+01  0.000E+00  0.000E+00  0.000E+00  1.08945E+03  1.393E+00  1.685E+01  1.179E-01  1.464E+00
   1    3    3     1     3    4.8579E+01  4.4210E-01   4.8137E+01  0.000E+00  0.000E+00  0.000E+00  1.08381E+03  1.390E+00  1.679E+01  1.007E-01  1.463E+00
   1    3    4     1     4    4.8137E+01  4.0732E-01   4.7729E+01  0.000E+00  0.000E+00  0.000E+00  1.07879E+03  1.387E+00  1.673E+01  9.285E-02  1.462E+00
   1    4    5     2     1    4.5729E+01  3.6899E-01   4.5360E+01  0.000E+00  0.000E+00  0.000E+00  1.07366E+03  1.731E+00  1.200E+01  7.800E-02  1.577E+00
   1    5    6     2     2    4.5360E+01  2.8339E-01   4.5077E+01  0.000E+00  0.000E+00  0.000E+00  1.06823E+03  1.723E+00  1.200E+01  6.000E-02  1.574E+00
   1    6    6     2     3    4.5077E+01  2.8300E-01   4.4794E+01  0.000E+00  0.000E+00  0.000E+00  1.06351E+03  1.717E+00  1.200E+01  6.000E-02  1.572E+00
   1    7    6     2     4    4.4794E+01  2.8261E-01   4.4511E+01  0.000E+00  0.000E+00  0.000E+00  1.05879E+03  1.710E+00  1.200E+01  6.000E-02  1.570E+00
   1    8    6     2     5    4.4511E+01  2.8222E-01   4.4229E+01  0.000E+00  0.000E+00  0.000E+00  1.05406E+03  1.704E+00  1.200E+01  6.000E-02  1.568E+00
   1    3    5     3     1    2.0000E+00  2.8252E-01   1.7175E+00  0.000E+00  0.000E+00  0.000E+00  1.07555E+03  1.909E+00  9.636E+00  7.227E-02  1.955E+00
   1    3    6     3     2    1.7175E+00  2.4905E-01   1.4684E+00  0.000E+00  0.000E+00  0.000E+00  1.07264E+03  1.727E+00  8.909E+00  6.682E-02  1.864E+00
   1    3    7     3     3    1.4684E+00  1.9718E-01   1.2712E+00  0.000E+00  0.000E+00  0.000E+00  1.06987E+03  1.555E+00  8.218E+00  5.547E-02  1.777E+00
   1    4    8     3     4    1.2712E+00  2.2567E-01   1.0456E+00  0.000E+00  0.000E+00  0.000E+00  1.06682E+03  1.364E+00  7.455E+00  6.709E-02  1.682E+00
   1    5    8     3     5    1.0456E+00  1.5790E-01   8.8768E-01  0.000E+00  0.000E+00  0.000E+00  1.06362E+03  1.164E+00  6.655E+00  4.991E-02  1.582E+00
   1    6    8     3     6    8.8768E-01  5.5980E-02   8.3170E-01  0.000E+00  0.000E+00  0.000E+00  1.06158E+03  1.036E+00  6.145E+00  1.844E-02  1.518E+00
   1    5   10     4     1    1.0000E+01  9.0919E-02   9.9091E+00  0.000E+00  0.000E+00  0.000E+00  1.07836E+03  6.368E-01  1.000E+01  2.500E-02  1.212E+00
   1    5    9     4     2    9.9091E+00  1.8158E-01   9.7275E+00  0.000E+00  0.000E+00  0.000E+00  1.07154E+03  6.315E-01  1.000E+01  5.000E-02  1.211E+00
   1    6    8     4     3    9.7275E+00  1.2689E-01   9.6006E+00  0.000E+00  0.000E+00  0.000E+00  1.06381E+03  6.256E-01  1.000E+01  3.500E-02  1.209E+00
   1    6    8     5     1    1.0432E+01  2.2686E-01   1.0205E+01  0.000E+00  0.000E+00  0.000E+00  1.05868E+03  6.790E-01  1.542E+01  6.166E-02  1.226E+00
   1    7    7     5     2    1.0205E+01  2.7894E-01   9.9265E+00  0.000E+00  0.000E+00  0.000E+00  1.05417E+03  6.732E-01  1.519E+01  7.594E-02  1.224E+00
   1    8    7     5     3    9.9265E+00  1.9221E-01   9.7343E+00  0.000E+00  0.000E+00  0.000E+00  1.04992E+03  6.676E-01  1.497E+01  5.241E-02  1.223E+00
   1    8    6     5     4    9.7343E+00  1.3577E-01   9.5985E+00  0.000E+00  0.000E+00  0.000E+00  1.04691E+03  6.637E-01  1.482E+01  3.706E-02  1.221E+00
   1    9    6     6     1    5.3828E+01  2.9588E-01   5.3532E+01  0.000E+00  0.000E+00  0.000E+00  1.04466E+03  1.931E+00  1.200E+01  6.000E-02  1.644E+00
   1   10    7     6     2    5.3532E+01  2.9550E-01   5.3236E+01  0.000E+00  0.000E+00  0.000E+00  1.04011E+03  1.925E+00  1.200E+01  6.000E-02  1.642E+00
   1   11    7     6     3    5.3236E+01  2.9511E-01   5.2941E+01  0.000E+00  0.000E+00  0.000E+00  1.03555E+03  1.919E+00  1.200E+01  6.000E-02  1.640E+00
   1   12    7     6     4    5.2941E+01  2.9473E-01   5.2646E+01  0.000E+00  0.000E+00  0.000E+00  1.03100E+03  1.912E+00  1.200E+01  6.000E-02  1.637E+00
   1   13    7     6     5    5.2646E+01  1.6643E-02   5.2630E+01  0.000E+00  0.000E+00  0.000E+00  1.02782E+03  1.909E+00  1.200E+01  2.400E-02  2.312E-01
   1   14    9     7     1    1.5000E+02  1.3365E+00   1.4866E+02  0.000E+00  0.000E+00  0.000E+00  1.03987E+03  2.288E+00  5.529E+01  5.593E-01  7.965E-01
   1   13    8     7     2    1.4866E+02  1.8262E+00   1.4684E+02  0.000E+00  0.000E+00  0.000E+00  1.03478E+03  2.279E+00  5.526E+01  6.148E-01  9.902E-01
   1   13    7     7     3    1.4684E+02  1.4328E+00   1.4540E+02  0.000E+00  0.000E+00  0.000E+00  1.02969E+03  2.271E+00  5.522E+01  5.585E-01  8.552E-01
   1   13    6     8     1    1.9803E+02  9.9125E-01   1.9704E+02  0.000E+00  0.000E+00  0.000E+00  1.02500E+03  3.123E+00  4.529E+01  4.615E-01  7.160E-01
   1   13    5     8     2    1.9704E+02  1.9778E-01   1.9685E+02  0.000E+00  0.000E+00  0.000E+00  1.01874E+03  3.120E+00  4.524E+01  4.610E-01  1.430E-01
   1   13    4     8     3    1.9685E+02 -2.4529E+00   1.9930E+02  0.000E+00  0.000E+00  0.000E+00  1.01250E+03  3.126E+00  4.533E+01  4.619E+00 -1.770E-01
   1   13    3     8     4    1.9930E+02 -3.6523E+00   2.0295E+02  0.000E+00  0.000E+00  0.000E+00  1.00627E+03  3.144E+00  4.559E+01  4.646E+00 -2.620E-01
   1   13    2     8     5    2.0295E+02 -2.6261E+00   2.0558E+02  0.000E+00  0.000E+00  0.000E+00  1.00004E+03  3.163E+00  4.586E+01  4.673E+00 -1.873E-01
   1   13    1     8     6    2.0558E+02 -2.0243E+00   2.0760E+02  0.000E+00  0.000E+00  0.000E+00  9.95051E+02  3.176E+00  4.605E+01  2.816E+00 -2.396E-01
   1    8    6     9     1    3.3198E-07  0.0000E+00   3.3198E-07  0.000E+00  0.000E+00  0.000E+00  1.07875E+03  5.785E-05  4.000E+00  0.000E+00  1.000E+00
   1    8    5     9     2    3.3198E-07  0.0000E+00   3.3198E-07  0.000E+00  0.000E+00  0.000E+00  1.07825E+03  5.785E-05  4.000E+00  0.000E+00  1.000E+00





UNSATURATED ZONE PACKAGE VOLUMETRIC BUDGET FOR  TIME STEP    30 STRESS PERIOD   17
  ------------------------------------------------------------------------------



     CUMULATIVE VOLUMES      L**3       RATES FOR THIS TIME STEP      L**3/T
     ------------------                 ------------------------

           IN:                                      IN:
           ---                                      ---
        INFILTRATION =   537080457.0496          INFILTRATION =           0.8475

          OUT:                                     OUT:
          ----                                     ----
              UZF ET =   449151776.4899                UZF ET =           4.5675
        UZF RECHARGE =       73224.0000          UZF RECHARGE =       0.0000E+00

            IN - OUT =    87855456.5597              IN - OUT =          -3.7200

          STORAGE:                                 STORAGE:
          --------                                 --------
      STORAGE CHANGE =    87855432.4566        STORAGE CHANGE =          -3.7200

 PERCENT DISCREPANCY IS DIFFERENCE BETWEEN IN-OUT MINUS CHANGE IN STORAGE
 DIVIDED BY THE AVERAGE OF IN AND OUT TIMES 100

 PERCENT DISCREPANCY =           0.00     PERCENT DISCREPANCY =          -0.00






1
  VOLUMETRIC BUDGET FOR AGRICULTURAL FIELDS AT  END OF TIME STEP   30, STRESS PERIOD  17
  ------------------------------------------------------------------------------

     CUMULATIVE VOLUMES      L**3       RATES FOR THIS TIME STEP      L**3/T
     ------------------                 ------------------------

           IN:                                      IN:
           ---                                      ---
               AG WELLS  =   151827360.0000                 AG WELLS  =       1.1066E-07
      DIVERSION SEGMENTS =   349512736.0000        DIVERSION SEGMENTS =       3.3198E-07
           GW IRRIGATION =           0.0000             GW IRRIGATION =           0.0000
           SW IRRIGATION =           0.0000             SW IRRIGATION =           0.0000
        SYSTEM LOSSES GW =           0.0000          SYSTEM LOSSES GW =           0.0000
        SYSTEM LOSSES SW =           0.0000          SYSTEM LOSSES SW =           0.0000

                TOTAL IN =   501340096.0000                  TOTAL IN =       4.4264E-07

          OUT:                                     OUT:
          ----                                     ----
               AG WELLS  =           0.0000                 AG WELLS  =           0.0000
      DIVERSION SEGMENTS =           0.0000        DIVERSION SEGMENTS =           0.0000
           GW IRRIGATION =   151827360.0000             GW IRRIGATION =       1.1066E-07
           SW IRRIGATION =   349519680.0000             SW IRRIGATION =       3.3199E-07
        SYSTEM LOSSES GW =           0.0000          SYSTEM LOSSES GW =           0.0000
        SYSTEM LOSSES SW =           0.0000          SYSTEM LOSSES SW =           0.0000

               TOTAL OUT =   501347040.0000                 TOTAL OUT =       4.4265E-07

                IN - OUT =       -6944.0000                  IN - OUT =      -6.5938E-12

     PERCENT DISCREPANCY =          -0.00         PERCENT DISCREPANCY =          -0.00



1
  VOLUMETRIC BUDGET FOR ENTIRE MODEL AT END OF TIME STEP   30, STRESS PERIOD  17
  ------------------------------------------------------------------------------

     CUMULATIVE VOLUMES      L**3       RATES FOR THIS TIME STEP      L**3/T
     ------------------                 ------------------------

           IN:                                      IN:
           ---                                      ---
             STORAGE     =   269321408.0000               STORAGE     =           1.1374
       CONSTANT HEAD     =           0.0000         CONSTANT HEAD     =           0.0000
     HEAD DEP BOUNDS     =    12049026.0000       HEAD DEP BOUNDS     =           0.2858
      STREAM LEAKAGE     =   506876832.0000        STREAM LEAKAGE     =          12.5858
        UZF RECHARGE     =       73223.9531          UZF RECHARGE     =           0.0000
               GW ET     =           0.0000                 GW ET     =           0.0000
     SURFACE LEAKAGE     =           0.0000       SURFACE LEAKAGE     =           0.0000
           AG WELLS      =           0.0000             AG WELLS      =           0.0000

                TOTAL IN =   788320512.0000                  TOTAL IN =          14.0091

          OUT:                                     OUT:
          ----                                     ----
             STORAGE     =   170140848.0000               STORAGE     =           2.8497
       CONSTANT HEAD     =           0.0000         CONSTANT HEAD     =           0.0000
     HEAD DEP BOUNDS     =    12275860.0000       HEAD DEP BOUNDS     =           0.2953
      STREAM LEAKAGE     =   452133216.0000        STREAM LEAKAGE     =          10.7557
        UZF RECHARGE     =           0.0000          UZF RECHARGE     =           0.0000
               GW ET     =     1951378.0000                 GW ET     =           0.1088
     SURFACE LEAKAGE     =           0.0000       SURFACE LEAKAGE     =           0.0000
           AG WELLS      =   151827360.0000             AG WELLS      =       1.1066E-07

               TOTAL OUT =   788328576.0000                 TOTAL OUT =          14.0096

                IN - OUT =       -8064.0000                  IN - OUT =      -4.8542E-04

     PERCENT DISCREPANCY =          -0.00         PERCENT DISCREPANCY =          -0.00






         TIME SUMMARY AT END OF TIME STEP   30 IN STRESS PERIOD   17
                    SECONDS     MINUTES      HOURS       DAYS        YEARS
                    -----------------------------------------------------------
   TIME STEP LENGTH  87667.      1461.1      24.352      1.0147     2.77799E-03
 STRESS PERIOD TIME 2.63000E+06  43833.      730.56      30.440     8.33397E-02
         TOTAL TIME 4.21664E+07 7.02774E+05  11713.      488.04      1.3362    
1
1
                            STRESS PERIOD NO.   18, LENGTH =   2630000.    
                            -----------------------------------------------

                              NUMBER OF TIME STEPS =    30

                               MULTIPLIER FOR DELT =     1.000

                            INITIAL TIME STEP SIZE =   87666.66    

 REUSING NON-PARAMETER GHB CELLS FROM LAST STRESS PERIOD

      2 GHB CELLS

 REUSING STREAM SEGMENT DATA FROM LAST STRESS PERIOD



            AREAL INFILTRATION RATE
 READING ON UNIT   19 WITH FORMAT: (FREE)              

            1           2           3           4           5           6           7           8           9          10
 ........................................................................................................................
   1   1.0000E-10  2.0000E-10   0.000       0.000       0.000       0.000       0.000       0.000       0.000       0.000    
   2   2.0000E-10  1.0000E-10  2.0000E-10   0.000       0.000      8.0000E-10  8.0000E-10  5.0000E-10   0.000       0.000    
   3    0.000      5.0000E-10  1.0000E-10  1.0000E-10  8.0000E-10  8.0000E-10  5.0000E-10  5.0000E-10   0.000       0.000    
   4   8.0000E-10  5.0000E-10  1.0000E-10  1.0000E-10  1.0000E-10  1.0000E-10  1.0000E-10  1.0000E-10  2.0000E-10   0.000    
   5   8.0000E-10  5.0000E-10  1.0000E-10  1.0000E-10  1.0000E-10  1.0000E-10  1.0000E-10  1.0000E-10  1.0000E-10  1.0000E-10
   6   8.0000E-10  5.0000E-10  5.0000E-10  2.0000E-10  2.0000E-10  1.0000E-10  1.0000E-10  1.0000E-10  1.0000E-10  5.0000E-10
   7   8.0000E-10  5.0000E-10  5.0000E-10  2.0000E-10  2.0000E-10  1.0000E-10  1.0000E-10  2.0000E-10  2.0000E-10   0.000    
   8    0.000      5.0000E-10  5.0000E-10  2.0000E-10  2.0000E-10  1.0000E-10  1.0000E-10  2.0000E-10  5.0000E-10   0.000    
   9    0.000      5.0000E-10  5.0000E-10  2.0000E-10  2.0000E-10  1.0000E-10  1.0000E-10  2.0000E-10  5.0000E-10   0.000    
  10    0.000      5.0000E-10  5.0000E-10  2.0000E-10  2.0000E-10  1.0000E-10  1.0000E-10  2.0000E-10  5.0000E-10  8.0000E-10
  11    0.000      1.0000E-10  1.0000E-10  1.0000E-10  1.0000E-10  1.0000E-10  1.0000E-10  2.0000E-10  5.0000E-10   0.000    
  12   1.0000E-10  1.0000E-10  1.0000E-10  1.0000E-10  1.0000E-10  1.0000E-10  1.0000E-10  1.0000E-10  2.0000E-10   0.000    
  13   1.0000E-10  1.0000E-10  2.0000E-10  2.0000E-10  2.0000E-10  2.0000E-10  2.0000E-10  1.0000E-10  1.0000E-10   0.000    
  14    0.000      2.0000E-10  5.0000E-10  5.0000E-10  5.0000E-10  5.0000E-10  5.0000E-10  2.0000E-10  1.0000E-10   0.000    
  15    0.000       0.000      8.0000E-10  8.0000E-10  8.0000E-10  8.0000E-10   0.000       0.000       0.000       0.000    

                  ET RATE =  5.000000E-08

 USING ET EXTINCTION DEPTH FROM PREVIOUS STRESS PERIOD. CURRENT PERIOD IS:      18

 USING EXTINCTION WATER CONTENT FROM PREVIOUS STRESS PERIOD. CURRENT PERIOD IS:      18

 USING AIR ENTRY PRESSURE FROM PREVIOUS STRESS PERIOD. CURRENT PERIOD IS:      18

 USING ROOT PRESSURE HEAD FROM PREVIOUS STRESS PERIOD. CURRENT PERIOD IS:      18

 USING ROOT ACTIVITY FROM PREVIOUS STRESS PERIOD. CURRENT PERIOD IS:      18

 PROCESSING AG STRESS PERIOD DATA

 READING AG STRESS PERIOD DATA

 READING IRRIGATION SEGMENT

 READING IRRIGATION WELL

 READING SUPPLEMENTAL WELL

 END PROCESSING AG STRESS PERIOD DATA OPTIONS
 
 SOLVING FOR HEAD 
                                                   Max.-Head-Change                         Max.-Flux-Residual
  Residual-Control   Outer-Iter.   Inner-Iter.     Column Row Layer    Maximum-Head-Change  Column Row Layer    Maximum-Flux-Residual          L2-NORM 
          0                 1           2             1    1     1       0.3127549171E-02       3   13    1        -0.1754484195E+00      0.5864962612E+00
          0                 2           2             4    7     1      -0.2343694969E-01       4    7    1        -0.1258736504E+01      0.3089524542E+01
          0                 3           2             4    7     1       0.2411533476E-01       4    7    1         0.1331370585E+01      0.3270899386E+01
          0                 4           2             4    7     1      -0.9595813757E-03       4    7    1        -0.5445372290E-01      0.1356837376E+00
          0                 5           1             4   13     1      -0.1602030276E-04       4   13    1        -0.1010398353E-02      0.2384903952E-02

    ------------------------------------------------
       NWT REQUIRED            5 OUTER ITERATIONS 
       AND A TOTAL OF          9 INNER ITERATIONS.
    ------------------------------------------------

 NO OUTPUT CONTROL FOR STRESS PERIOD   18   TIME STEP    1
 
 SOLVING FOR HEAD 
                                                   Max.-Head-Change                         Max.-Flux-Residual
  Residual-Control   Outer-Iter.   Inner-Iter.     Column Row Layer    Maximum-Head-Change  Column Row Layer    Maximum-Flux-Residual          L2-NORM 
          0                 1           2             1    1     1       0.3124994180E-02       1    1    1         0.1621881753E+00      0.5493243145E+00
          0                 2           2             1    1     1      -0.3039769466E-03       1    1    1        -0.1621883262E-01      0.5475400327E-01
          0                 3           1             1    1     1       0.2069970114E-04       1    1    1         0.1135318639E-02      0.3816464961E-02

    ------------------------------------------------
       NWT REQUIRED            3 OUTER ITERATIONS 
       AND A TOTAL OF          5 INNER ITERATIONS.
    ------------------------------------------------

 NO OUTPUT CONTROL FOR STRESS PERIOD   18   TIME STEP    2
 
 SOLVING FOR HEAD 
                                                   Max.-Head-Change                         Max.-Flux-Residual
  Residual-Control   Outer-Iter.   Inner-Iter.     Column Row Layer    Maximum-Head-Change  Column Row Layer    Maximum-Flux-Residual          L2-NORM 
          0                 1           2             1    1     1       0.3122446048E-02       1    1    1         0.1620556575E+00      0.5411984040E+00
          0                 2           2             4    7     1      -0.2343926994E-01       4    7    1        -0.1258861093E+01      0.3090788681E+01
          0                 3           2             4    7     1       0.2412104695E-01       4    7    1         0.1331686151E+01      0.3271659069E+01
          0                 4           2             4    7     1      -0.9598086737E-03       4    7    1        -0.5446662984E-01      0.1357116264E+00
          0                 5           1             4   13     1      -0.1600617325E-04       4   13    1        -0.1009496467E-02      0.2385165141E-02

    ------------------------------------------------
       NWT REQUIRED            5 OUTER ITERATIONS 
       AND A TOTAL OF          9 INNER ITERATIONS.
    ------------------------------------------------

 NO OUTPUT CONTROL FOR STRESS PERIOD   18   TIME STEP    3
 
 SOLVING FOR HEAD 
                                                   Max.-Head-Change                         Max.-Flux-Residual
  Residual-Control   Outer-Iter.   Inner-Iter.     Column Row Layer    Maximum-Head-Change  Column Row Layer    Maximum-Flux-Residual          L2-NORM 
          0                 1           2             1    1     1       0.3119929042E-02       1    1    1         0.1619247589E+00      0.5217801207E+00
          0                 2           2             1    1     1      -0.3034842453E-03       1    1    1        -0.1619249088E-01      0.5212812528E-01
          0                 3           1             1    1     1       0.2066614962E-04       1    1    1         0.1133474707E-02      0.3644365901E-02

    ------------------------------------------------
       NWT REQUIRED            3 OUTER ITERATIONS 
       AND A TOTAL OF          5 INNER ITERATIONS.
    ------------------------------------------------

 NO OUTPUT CONTROL FOR STRESS PERIOD   18   TIME STEP    4
 
 SOLVING FOR HEAD 
                                                   Max.-Head-Change                         Max.-Flux-Residual
  Residual-Control   Outer-Iter.   Inner-Iter.     Column Row Layer    Maximum-Head-Change  Column Row Layer    Maximum-Flux-Residual          L2-NORM 
          0                 1           2             1    1     1       0.3117396195E-02       1    1    1         0.1617930385E+00      0.5183087894E+00
          0                 2           2             4    7     1      -0.2343663787E-01       4    7    1        -0.1258719721E+01      0.3091239662E+01
          0                 3           2             4    7     1       0.2412154636E-01       4    7    1         0.1331713925E+01      0.3271716518E+01
          0                 4           2             4    7     1      -0.9598285457E-03       4    7    1        -0.5446776583E-01      0.1357110094E+00
          0                 5           1             4   13     1      -0.1595555191E-04       4   13    1        -0.1006194922E-02      0.2382503450E-02

    ------------------------------------------------
       NWT REQUIRED            5 OUTER ITERATIONS 
       AND A TOTAL OF          9 INNER ITERATIONS.
    ------------------------------------------------

 NO OUTPUT CONTROL FOR STRESS PERIOD   18   TIME STEP    5
 
 SOLVING FOR HEAD 
                                                   Max.-Head-Change                         Max.-Flux-Residual
  Residual-Control   Outer-Iter.   Inner-Iter.     Column Row Layer    Maximum-Head-Change  Column Row Layer    Maximum-Flux-Residual          L2-NORM 
          0                 1           2             1    1     1       0.3114871858E-02       1    1    1         0.1616617599E+00      0.5110611916E+00
          0                 2           2             1    1     1      -0.3029923174E-03       1    1    1        -0.1616619087E-01      0.5110257221E-01
          0                 3           1             1    1     1       0.2063265136E-04       1    1    1         0.1131633703E-02      0.3576815062E-02

    ------------------------------------------------
       NWT REQUIRED            3 OUTER ITERATIONS 
       AND A TOTAL OF          5 INNER ITERATIONS.
    ------------------------------------------------

 NO OUTPUT CONTROL FOR STRESS PERIOD   18   TIME STEP    6
 
 SOLVING FOR HEAD 
                                                   Max.-Head-Change                         Max.-Flux-Residual
  Residual-Control   Outer-Iter.   Inner-Iter.     Column Row Layer    Maximum-Head-Change  Column Row Layer    Maximum-Flux-Residual          L2-NORM 
          0                 1           2             1    1     1       0.3112354244E-02       1    1    1         0.1615308319E+00      0.5087827060E+00
          0                 2           2             4    7     1      -0.2343352607E-01       4    7    1        -0.1258552449E+01      0.3091498373E+01
          0                 3           2             4    7     1       0.2412151219E-01       4    7    1         0.1331712230E+01      0.3271933980E+01
          0                 4           2             4    7     1      -0.9598271862E-03       4    7    1        -0.5446769650E-01      0.1353329068E+00
          0                 5           1             2   13     1      -0.1491446418E-04       2   13    1        -0.8880618261E-03      0.2207450629E-02

    ------------------------------------------------
       NWT REQUIRED            5 OUTER ITERATIONS 
       AND A TOTAL OF          9 INNER ITERATIONS.
    ------------------------------------------------

 NO OUTPUT CONTROL FOR STRESS PERIOD   18   TIME STEP    7
 
 SOLVING FOR HEAD 
                                                   Max.-Head-Change                         Max.-Flux-Residual
  Residual-Control   Outer-Iter.   Inner-Iter.     Column Row Layer    Maximum-Head-Change  Column Row Layer    Maximum-Flux-Residual          L2-NORM 
          0                 1           2             1    1     1       0.3109867621E-02       1    1    1         0.1614015156E+00      0.5094675019E+00
          0                 2           2             1    1     1      -0.3025055399E-03       1    1    1        -0.1614016633E-01      0.5094010342E-01
          0                 3           1             1    1     1       0.2059950338E-04       1    1    1         0.1129811985E-02      0.3565221051E-02

    ------------------------------------------------
       NWT REQUIRED            3 OUTER ITERATIONS 
       AND A TOTAL OF          5 INNER ITERATIONS.
    ------------------------------------------------

 NO OUTPUT CONTROL FOR STRESS PERIOD   18   TIME STEP    8
 
 SOLVING FOR HEAD 
                                                   Max.-Head-Change                         Max.-Flux-Residual
  Residual-Control   Outer-Iter.   Inner-Iter.     Column Row Layer    Maximum-Head-Change  Column Row Layer    Maximum-Flux-Residual          L2-NORM 
          0                 1           2             1    1     1       0.3107365050E-02       1    1    1         0.1612713706E+00      0.5065140288E+00
          0                 2           2             4    7     1      -0.2343045093E-01       4    7    1        -0.1258387151E+01      0.3091650347E+01
          0                 3           2             4    7     1       0.2412148272E-01       4    7    1         0.1331710792E+01      0.3272310179E+01
          0                 4           2             4    7     1      -0.9598260135E-03       4    7    1        -0.5446763767E-01      0.1347191741E+00
          0                 5           1             4    7     1       0.1183505495E-04       4    7    1         0.6902719213E-03      0.1895688586E-02

    ------------------------------------------------
       NWT REQUIRED            5 OUTER ITERATIONS 
       AND A TOTAL OF          9 INNER ITERATIONS.
    ------------------------------------------------

 NO OUTPUT CONTROL FOR STRESS PERIOD   18   TIME STEP    9
 
 SOLVING FOR HEAD 
                                                   Max.-Head-Change                         Max.-Flux-Residual
  Residual-Control   Outer-Iter.   Inner-Iter.     Column Row Layer    Maximum-Head-Change  Column Row Layer    Maximum-Flux-Residual          L2-NORM 
          0                 1           2             1    1     1       0.3104870822E-02       1    1    1         0.1611416613E+00      0.5122322397E+00
          0                 2           2             1    1     1      -0.3020194862E-03       1    1    1        -0.1611418080E-01      0.5118777224E-01
          0                 3           1             1    1     1       0.2056640533E-04       1    1    1         0.1127993010E-02      0.3579890283E-02

    ------------------------------------------------
       NWT REQUIRED            3 OUTER ITERATIONS 
       AND A TOTAL OF          5 INNER ITERATIONS.
    ------------------------------------------------

 NO OUTPUT CONTROL FOR STRESS PERIOD   18   TIME STEP   10
 
 SOLVING FOR HEAD 
                                                   Max.-Head-Change                         Max.-Flux-Residual
  Residual-Control   Outer-Iter.   Inner-Iter.     Column Row Layer    Maximum-Head-Change  Column Row Layer    Maximum-Flux-Residual          L2-NORM 
          0                 1           2             1    1     1       0.3102383201E-02       1    1    1         0.1610122949E+00      0.5078350311E+00
          0                 2           2             4    7     1      -0.2342743652E-01       4    7    1        -0.1258225041E+01      0.3091721366E+01
          0                 3           2             4    7     1       0.2412145528E-01       4    7    1         0.1331709458E+01      0.3272314515E+01
          0                 4           2             4    7     1      -0.9598249214E-03       4    7    1        -0.5446758311E-01      0.1347196277E+00
          0                 5           1             4    7     1       0.1183504151E-04       4    7    1         0.6902712234E-03      0.1896014524E-02

    ------------------------------------------------
       NWT REQUIRED            5 OUTER ITERATIONS 
       AND A TOTAL OF          9 INNER ITERATIONS.
    ------------------------------------------------

 NO OUTPUT CONTROL FOR STRESS PERIOD   18   TIME STEP   11
 
 SOLVING FOR HEAD 
                                                   Max.-Head-Change                         Max.-Flux-Residual
  Residual-Control   Outer-Iter.   Inner-Iter.     Column Row Layer    Maximum-Head-Change  Column Row Layer    Maximum-Flux-Residual          L2-NORM 
          0                 1           2             1    1     1       0.3099903870E-02       1    1    1         0.1608833605E+00      0.5167219428E+00
          0                 2           2             1    1     1      -0.3015363354E-03       1    1    1        -0.1608835061E-01      0.5159728777E-01
          0                 3           1             1    1     1       0.2053350467E-04       1    1    1         0.1126184890E-02      0.3605723764E-02

    ------------------------------------------------
       NWT REQUIRED            3 OUTER ITERATIONS 
       AND A TOTAL OF          5 INNER ITERATIONS.
    ------------------------------------------------

 NO OUTPUT CONTROL FOR STRESS PERIOD   18   TIME STEP   12
 
 SOLVING FOR HEAD 
                                                   Max.-Head-Change                         Max.-Flux-Residual
  Residual-Control   Outer-Iter.   Inner-Iter.     Column Row Layer    Maximum-Head-Change  Column Row Layer    Maximum-Flux-Residual          L2-NORM 
          0                 1           2             1    1     1       0.3097431085E-02       1    1    1         0.1607547667E+00      0.5106141316E+00
          0                 2           2             4    7     1      -0.2342448206E-01       4    7    1        -0.1258066198E+01      0.3091722908E+01
          0                 3           2             4    7     1       0.2412142982E-01       4    7    1         0.1331708233E+01      0.3272328533E+01
          0                 4           2             4    7     1      -0.9598239079E-03       4    7    1        -0.5446753301E-01      0.1345700306E+00
          0                 5           1             4    7     1       0.1183502897E-04       4    7    1         0.6902705773E-03      0.1870899493E-02

    ------------------------------------------------
       NWT REQUIRED            5 OUTER ITERATIONS 
       AND A TOTAL OF          9 INNER ITERATIONS.
    ------------------------------------------------

 NO OUTPUT CONTROL FOR STRESS PERIOD   18   TIME STEP   13
 
 SOLVING FOR HEAD 
                                                   Max.-Head-Change                         Max.-Flux-Residual
  Residual-Control   Outer-Iter.   Inner-Iter.     Column Row Layer    Maximum-Head-Change  Column Row Layer    Maximum-Flux-Residual          L2-NORM 
          0                 1           2             1    1     1       0.3094966505E-02       1    1    1         0.1606266014E+00      0.5211974750E+00
          0                 2           2             1    1     1      -0.3010560628E-03       1    1    1        -0.1606267460E-01      0.5298888284E-01
          0                 3           1             1    1     1       0.2050079950E-04       1    1    1         0.1124387563E-02      0.3695586294E-02

    ------------------------------------------------
       NWT REQUIRED            3 OUTER ITERATIONS 
       AND A TOTAL OF          5 INNER ITERATIONS.
    ------------------------------------------------

 NO OUTPUT CONTROL FOR STRESS PERIOD   18   TIME STEP   14
 
 SOLVING FOR HEAD 
                                                   Max.-Head-Change                         Max.-Flux-Residual
  Residual-Control   Outer-Iter.   Inner-Iter.     Column Row Layer    Maximum-Head-Change  Column Row Layer    Maximum-Flux-Residual          L2-NORM 
          0                 1           2             1    1     1       0.3092508386E-02       1    1    1         0.1604987726E+00      0.5138018472E+00
          0                 2           2             4    7     1      -0.2342156085E-01       4    7    1        -0.1257909059E+01      0.3091673492E+01
          0                 3           2             4    7     1       0.2412140450E-01       4    7    1         0.1331707009E+01      0.3272332587E+01
          0                 4           2             4    7     1      -0.9598229010E-03       4    7    1        -0.5446748295E-01      0.1343775903E+00
          0                 5           1             4    7     1       0.1183501687E-04       4    7    1         0.6902699649E-03      0.1852309511E-02

    ------------------------------------------------
       NWT REQUIRED            5 OUTER ITERATIONS 
       AND A TOTAL OF          9 INNER ITERATIONS.
    ------------------------------------------------

 NO OUTPUT CONTROL FOR STRESS PERIOD   18   TIME STEP   15
 
 SOLVING FOR HEAD 
                                                   Max.-Head-Change                         Max.-Flux-Residual
  Residual-Control   Outer-Iter.   Inner-Iter.     Column Row Layer    Maximum-Head-Change  Column Row Layer    Maximum-Flux-Residual          L2-NORM 
          0                 1           2             1    1     1       0.3090058445E-02       1    1    1         0.1603713675E+00      0.5247601504E+00
          0                 2           2             1    1     1      -0.3005786413E-03       1    1    1        -0.1603715111E-01      0.5233274310E-01
          0                 3           1             1    1     1       0.2046828935E-04       1    1    1         0.1122600939E-02      0.3563237862E-02

    ------------------------------------------------
       NWT REQUIRED            3 OUTER ITERATIONS 
       AND A TOTAL OF          5 INNER ITERATIONS.
    ------------------------------------------------

 NO OUTPUT CONTROL FOR STRESS PERIOD   18   TIME STEP   16
 
 SOLVING FOR HEAD 
                                                   Max.-Head-Change                         Max.-Flux-Residual
  Residual-Control   Outer-Iter.   Inner-Iter.     Column Row Layer    Maximum-Head-Change  Column Row Layer    Maximum-Flux-Residual          L2-NORM 
          0                 1           2             1    1     1       0.3087614906E-02       1    1    1         0.1602442980E+00      0.5167921757E+00
          0                 2           2             4    7     1      -0.2341867236E-01       4    7    1        -0.1257753659E+01      0.3091846365E+01
          0                 3           2             4    7     1       0.2412137929E-01       4    7    1         0.1331705787E+01      0.3272514383E+01
          0                 4           2             4    7     1      -0.9598218975E-03       4    7    1        -0.5446743297E-01      0.1346133951E+00
          0                 5           1             4    7     1       0.1183500455E-04       4    7    1         0.6902693281E-03      0.1831467584E-02

    ------------------------------------------------
       NWT REQUIRED            5 OUTER ITERATIONS 
       AND A TOTAL OF          9 INNER ITERATIONS.
    ------------------------------------------------

 NO OUTPUT CONTROL FOR STRESS PERIOD   18   TIME STEP   17
 
 SOLVING FOR HEAD 
                                                   Max.-Head-Change                         Max.-Flux-Residual
  Residual-Control   Outer-Iter.   Inner-Iter.     Column Row Layer    Maximum-Head-Change  Column Row Layer    Maximum-Flux-Residual          L2-NORM 
          0                 1           2             1    1     1       0.3085179461E-02       1    1    1         0.1601176486E+00      0.5278962898E+00
          0                 2           2             1    1     1      -0.3001040473E-03       1    1    1        -0.1601177911E-01      0.5259786986E-01
          0                 3           1             1    1     1       0.2043597090E-04       1    1    1         0.1120824884E-02      0.3664491502E-02

    ------------------------------------------------
       NWT REQUIRED            3 OUTER ITERATIONS 
       AND A TOTAL OF          5 INNER ITERATIONS.
    ------------------------------------------------

 NO OUTPUT CONTROL FOR STRESS PERIOD   18   TIME STEP   18
 
 SOLVING FOR HEAD 
                                                   Max.-Head-Change                         Max.-Flux-Residual
  Residual-Control   Outer-Iter.   Inner-Iter.     Column Row Layer    Maximum-Head-Change  Column Row Layer    Maximum-Flux-Residual          L2-NORM 
          0                 1           2             1    1     1       0.3082750400E-02       1    1    1         0.1599913309E+00      0.5189060000E+00
          0                 2           2             4    7     1      -0.2341584485E-01       4    7    1        -0.1257601534E+01      0.3091553185E+01
          0                 3           2             4    7     1       0.2412135612E-01       4    7    1         0.1331704675E+01      0.3272654094E+01
          0                 4           2             4    7     1      -0.9598209758E-03       4    7    1        -0.5446738750E-01      0.1346287647E+00
          0                 5           1             4    7     1       0.1183499312E-04       4    7    1         0.6902687462E-03      0.1832762337E-02

    ------------------------------------------------
       NWT REQUIRED            5 OUTER ITERATIONS 
       AND A TOTAL OF          9 INNER ITERATIONS.
    ------------------------------------------------

 NO OUTPUT CONTROL FOR STRESS PERIOD   18   TIME STEP   19
 
 SOLVING FOR HEAD 
                                                   Max.-Head-Change                         Max.-Flux-Residual
  Residual-Control   Outer-Iter.   Inner-Iter.     Column Row Layer    Maximum-Head-Change  Column Row Layer    Maximum-Flux-Residual          L2-NORM 
          0                 1           2             1    1     1       0.3080329341E-02       1    1    1         0.1598654319E+00      0.5305519247E+00
          0                 2           2             1    1     1      -0.2996322613E-03       1    1    1        -0.1598655735E-01      0.5282927387E-01
          0                 3           1             1    1     1       0.2040384416E-04       1    1    1         0.1119059357E-02      0.3677392242E-02

    ------------------------------------------------
       NWT REQUIRED            3 OUTER ITERATIONS 
       AND A TOTAL OF          5 INNER ITERATIONS.
    ------------------------------------------------

 NO OUTPUT CONTROL FOR STRESS PERIOD   18   TIME STEP   20
 
 SOLVING FOR HEAD 
                                                   Max.-Head-Change                         Max.-Flux-Residual
  Residual-Control   Outer-Iter.   Inner-Iter.     Column Row Layer    Maximum-Head-Change  Column Row Layer    Maximum-Flux-Residual          L2-NORM 
          0                 1           2             1    1     1       0.3077914592E-02       1    1    1         0.1597398603E+00      0.5206623176E+00
          0                 2           2             4    7     1      -0.2341307682E-01       4    7    1        -0.1257452611E+01      0.3091287593E+01
          0                 3           2             4    7     1       0.2412133490E-01       4    7    1         0.1331703668E+01      0.3272411391E+01
          0                 4           2             4    7     1      -0.9598201312E-03       4    7    1        -0.5446734630E-01      0.1346017438E+00
          0                 5           1             4    7     1       0.1183498259E-04       4    7    1         0.6902682221E-03      0.1830073961E-02

    ------------------------------------------------
       NWT REQUIRED            5 OUTER ITERATIONS 
       AND A TOTAL OF          9 INNER ITERATIONS.
    ------------------------------------------------

 NO OUTPUT CONTROL FOR STRESS PERIOD   18   TIME STEP   21
 
 SOLVING FOR HEAD 
                                                   Max.-Head-Change                         Max.-Flux-Residual
  Residual-Control   Outer-Iter.   Inner-Iter.     Column Row Layer    Maximum-Head-Change  Column Row Layer    Maximum-Flux-Residual          L2-NORM 
          0                 1           2             1    1     1       0.3075507796E-02       1    1    1         0.1596147033E+00      0.5327036634E+00
          0                 2           2             1    1     1      -0.2991632552E-03       1    1    1        -0.1596148439E-01      0.5301517727E-01
          0                 3           1             1    1     1       0.2037190676E-04       1    1    1         0.1117304260E-02      0.3687875536E-02

    ------------------------------------------------
       NWT REQUIRED            3 OUTER ITERATIONS 
       AND A TOTAL OF          5 INNER ITERATIONS.
    ------------------------------------------------

 NO OUTPUT CONTROL FOR STRESS PERIOD   18   TIME STEP   22
 
 SOLVING FOR HEAD 
                                                   Max.-Head-Change                         Max.-Flux-Residual
  Residual-Control   Outer-Iter.   Inner-Iter.     Column Row Layer    Maximum-Head-Change  Column Row Layer    Maximum-Flux-Residual          L2-NORM 
          0                 1           2             1    1     1       0.3073107252E-02       1    1    1         0.1594898714E+00      0.5220320018E+00
          0                 2           2             4    7     1      -0.2341034110E-01       4    7    1        -0.1257305394E+01      0.3091115388E+01
          0                 3           2             4    7     1       0.2412131375E-01       4    7    1         0.1331702661E+01      0.3272416139E+01
          0                 4           2             4    7     1      -0.9598192899E-03       4    7    1        -0.5446730513E-01      0.1346018923E+00
          0                 5           1             4    7     1       0.1183497206E-04       4    7    1         0.6902677030E-03      0.1829744902E-02

    ------------------------------------------------
       NWT REQUIRED            5 OUTER ITERATIONS 
       AND A TOTAL OF          9 INNER ITERATIONS.
    ------------------------------------------------

 NO OUTPUT CONTROL FOR STRESS PERIOD   18   TIME STEP   23
 
 SOLVING FOR HEAD 
                                                   Max.-Head-Change                         Max.-Flux-Residual
  Residual-Control   Outer-Iter.   Inner-Iter.     Column Row Layer    Maximum-Head-Change  Column Row Layer    Maximum-Flux-Residual          L2-NORM 
          0                 1           2             1    1     1       0.3070714596E-02       1    1    1         0.1593654506E+00      0.5343590345E+00
          0                 2           2             1    1     1      -0.2986970060E-03       1    1    1        -0.1593655903E-01      0.5315442007E-01
          0                 3           1             1    1     1       0.2034015657E-04       1    1    1         0.1115559478E-02      0.3695390584E-02

    ------------------------------------------------
       NWT REQUIRED            3 OUTER ITERATIONS 
       AND A TOTAL OF          5 INNER ITERATIONS.
    ------------------------------------------------

 NO OUTPUT CONTROL FOR STRESS PERIOD   18   TIME STEP   24
 
 SOLVING FOR HEAD 
                                                   Max.-Head-Change                         Max.-Flux-Residual
  Residual-Control   Outer-Iter.   Inner-Iter.     Column Row Layer    Maximum-Head-Change  Column Row Layer    Maximum-Flux-Residual          L2-NORM 
          0                 1           2             1    1     1       0.3068328134E-02       1    1    1         0.1592413521E+00      0.5230233873E+00
          0                 2           2             4    7     1      -0.2340766577E-01       4    7    1        -0.1257161444E+01      0.3090930993E+01
          0                 3           2             4    7     1       0.2412129677E-01       4    7    1         0.1331701883E+01      0.3272420892E+01
          0                 4           2             4    7     1      -0.9598186138E-03       4    7    1        -0.5446727329E-01      0.1346026645E+00
          0                 5           1             4    7     1       0.1183496400E-04       4    7    1         0.6902673019E-03      0.1830033119E-02

    ------------------------------------------------
       NWT REQUIRED            5 OUTER ITERATIONS 
       AND A TOTAL OF          9 INNER ITERATIONS.
    ------------------------------------------------

 NO OUTPUT CONTROL FOR STRESS PERIOD   18   TIME STEP   25
 
 SOLVING FOR HEAD 
                                                   Max.-Head-Change                         Max.-Flux-Residual
  Residual-Control   Outer-Iter.   Inner-Iter.     Column Row Layer    Maximum-Head-Change  Column Row Layer    Maximum-Flux-Residual          L2-NORM 
          0                 1           2             1    1     1       0.3065949505E-02       1    1    1         0.1591176612E+00      0.5355756436E+00
          0                 2           2             1    1     1      -0.2982334915E-03       1    1    1        -0.1591178001E-01      0.5325211872E-01
          0                 3           1             1    1     1       0.2030859335E-04       1    1    1         0.1113824959E-02      0.3698500523E-02

    ------------------------------------------------
       NWT REQUIRED            3 OUTER ITERATIONS 
       AND A TOTAL OF          5 INNER ITERATIONS.
    ------------------------------------------------

 NO OUTPUT CONTROL FOR STRESS PERIOD   18   TIME STEP   26
 
 SOLVING FOR HEAD 
                                                   Max.-Head-Change                         Max.-Flux-Residual
  Residual-Control   Outer-Iter.   Inner-Iter.     Column Row Layer    Maximum-Head-Change  Column Row Layer    Maximum-Flux-Residual          L2-NORM 
          0                 1           2             1    1     1       0.3063577005E-02       1    1    1         0.1589942902E+00      0.5236516915E+00
          0                 2           2             4    7     1      -0.2340501898E-01       4    7    1        -0.1257018968E+01      0.3090735640E+01
          0                 3           2             4    7     1       0.2412127745E-01       4    7    1         0.1331700970E+01      0.3272429720E+01
          0                 4           2             4    7     1      -0.9598178452E-03       4    7    1        -0.5446723595E-01      0.1345952232E+00
          0                 5           1             4    7     1       0.1183495436E-04       4    7    1         0.6902668306E-03      0.1825480589E-02

    ------------------------------------------------
       NWT REQUIRED            5 OUTER ITERATIONS 
       AND A TOTAL OF          9 INNER ITERATIONS.
    ------------------------------------------------

 NO OUTPUT CONTROL FOR STRESS PERIOD   18   TIME STEP   27
 
 SOLVING FOR HEAD 
                                                   Max.-Head-Change                         Max.-Flux-Residual
  Residual-Control   Outer-Iter.   Inner-Iter.     Column Row Layer    Maximum-Head-Change  Column Row Layer    Maximum-Flux-Residual          L2-NORM 
          0                 1           2             1    1     1       0.3061189657E-02       1    1    1         0.1588701484E+00      0.5363889487E+00
          0                 2           2             1    1     1      -0.2977704861E-03       1    1    1        -0.1588702860E-01      0.5331415981E-01
          0                 3           1             1    1     1       0.2027706421E-04       1    1    1         0.1112092345E-02      0.3702400259E-02

    ------------------------------------------------
       NWT REQUIRED            3 OUTER ITERATIONS 
       AND A TOTAL OF          5 INNER ITERATIONS.
    ------------------------------------------------

 NO OUTPUT CONTROL FOR STRESS PERIOD   18   TIME STEP   28
 
 SOLVING FOR HEAD 
                                                   Max.-Head-Change                         Max.-Flux-Residual
  Residual-Control   Outer-Iter.   Inner-Iter.     Column Row Layer    Maximum-Head-Change  Column Row Layer    Maximum-Flux-Residual          L2-NORM 
          0                 1           2             1    1     1       0.3058831065E-02       1    1    1         0.1587475002E+00      0.5239706540E+00
          0                 2           2             4    7     1      -0.2340243181E-01       4    7    1        -0.1256879722E+01      0.3090533695E+01
          0                 3           2             4    7     1       0.2412126224E-01       4    7    1         0.1331700283E+01      0.3272435306E+01
          0                 4           2             4    7     1      -0.9598172404E-03       4    7    1        -0.5446720786E-01      0.1345938030E+00
          0                 5           1             4    7     1       0.1183494720E-04       4    7    1         0.6902664779E-03      0.1824283196E-02

    ------------------------------------------------
       NWT REQUIRED            5 OUTER ITERATIONS 
       AND A TOTAL OF          9 INNER ITERATIONS.
    ------------------------------------------------

 NO OUTPUT CONTROL FOR STRESS PERIOD   18   TIME STEP   29
 
 SOLVING FOR HEAD 
                                                   Max.-Head-Change                         Max.-Flux-Residual
  Residual-Control   Outer-Iter.   Inner-Iter.     Column Row Layer    Maximum-Head-Change  Column Row Layer    Maximum-Flux-Residual          L2-NORM 
          0                 1           2             1    1     1       0.3056480152E-02       4   13    1         0.1603941789E+00      0.5368378316E+00
          0                 2           2             1    1     1      -0.2973123784E-03       4   13    1        -0.1589056869E-01      0.5334094088E-01
          0                 3           1             1    1     1       0.2024586878E-04       1    1    1         0.1110378085E-02      0.3701894387E-02

    ------------------------------------------------
       NWT REQUIRED            3 OUTER ITERATIONS 
       AND A TOTAL OF          5 INNER ITERATIONS.
    ------------------------------------------------

 NO OUTPUT CONTROL FOR STRESS PERIOD   18   TIME STEP   30



 STREAM LISTING     PERIOD     18   STEP       30

 LAYER ROW COL. STREAM  RCH.  FLOW INTO     FLOW TO   FLOW OUT OF   OVRLND.     DIRECT     STREAM       STREAM     STREAM     STREAM   STREAMBED  STREAMBED
                SEG.NO.  NO.  STRM. RCH.    AQUIFER    STRM. RCH.    RUNOFF     PRECIP       ET          HEAD       DEPTH      WIDTH   CONDCTNC.   GRADIENT

   1    1    1     1     1    4.7251E+01  3.2762E-01   4.6923E+01  0.000E+00  0.000E+00  0.000E+00  1.09443E+03  1.381E+00  1.662E+01  7.477E-02  1.460E+00
   1    2    2     1     2    4.6923E+01  5.0760E-01   4.6416E+01  0.000E+00  0.000E+00  0.000E+00  1.08944E+03  1.379E+00  1.656E+01  1.159E-01  1.460E+00
   1    3    3     1     3    4.6416E+01  4.3310E-01   4.5982E+01  0.000E+00  0.000E+00  0.000E+00  1.08379E+03  1.376E+00  1.650E+01  9.898E-02  1.459E+00
   1    3    4     1     4    4.5982E+01  3.9899E-01   4.5583E+01  0.000E+00  0.000E+00  0.000E+00  1.07878E+03  1.373E+00  1.644E+01  9.124E-02  1.458E+00
   1    4    5     2     1    4.3583E+01  3.6514E-01   4.3218E+01  0.000E+00  0.000E+00  0.000E+00  1.07362E+03  1.681E+00  1.200E+01  7.800E-02  1.560E+00
   1    5    6     2     2    4.3218E+01  2.8043E-01   4.2938E+01  0.000E+00  0.000E+00  0.000E+00  1.06818E+03  1.674E+00  1.200E+01  6.000E-02  1.558E+00
   1    6    6     2     3    4.2938E+01  2.8003E-01   4.2658E+01  0.000E+00  0.000E+00  0.000E+00  1.06346E+03  1.667E+00  1.200E+01  6.000E-02  1.556E+00
   1    7    6     2     4    4.2658E+01  2.7964E-01   4.2378E+01  0.000E+00  0.000E+00  0.000E+00  1.05874E+03  1.661E+00  1.200E+01  6.000E-02  1.554E+00
   1    8    6     2     5    4.2378E+01  2.7925E-01   4.2099E+01  0.000E+00  0.000E+00  0.000E+00  1.05401E+03  1.654E+00  1.200E+01  6.000E-02  1.551E+00
   1    3    5     3     1    2.0000E+00  2.8252E-01   1.7175E+00  0.000E+00  0.000E+00  0.000E+00  1.07555E+03  1.909E+00  9.636E+00  7.227E-02  1.955E+00
   1    3    6     3     2    1.7175E+00  2.4905E-01   1.4684E+00  0.000E+00  0.000E+00  0.000E+00  1.07264E+03  1.727E+00  8.909E+00  6.682E-02  1.864E+00
   1    3    7     3     3    1.4684E+00  1.9718E-01   1.2712E+00  0.000E+00  0.000E+00  0.000E+00  1.06987E+03  1.555E+00  8.218E+00  5.547E-02  1.777E+00
   1    4    8     3     4    1.2712E+00  2.2567E-01   1.0456E+00  0.000E+00  0.000E+00  0.000E+00  1.06682E+03  1.364E+00  7.455E+00  6.709E-02  1.682E+00
   1    5    8     3     5    1.0456E+00  1.5790E-01   8.8768E-01  0.000E+00  0.000E+00  0.000E+00  1.06362E+03  1.164E+00  6.655E+00  4.991E-02  1.582E+00
   1    6    8     3     6    8.8768E-01  5.5980E-02   8.3170E-01  0.000E+00  0.000E+00  0.000E+00  1.06158E+03  1.036E+00  6.145E+00  1.844E-02  1.518E+00
   1    5   10     4     1    1.0000E+01  9.0919E-02   9.9091E+00  0.000E+00  0.000E+00  0.000E+00  1.07836E+03  6.368E-01  1.000E+01  2.500E-02  1.212E+00
   1    5    9     4     2    9.9091E+00  1.8158E-01   9.7275E+00  0.000E+00  0.000E+00  0.000E+00  1.07154E+03  6.315E-01  1.000E+01  5.000E-02  1.211E+00
   1    6    8     4     3    9.7275E+00  1.2689E-01   9.6006E+00  0.000E+00  0.000E+00  0.000E+00  1.06381E+03  6.256E-01  1.000E+01  3.500E-02  1.209E+00
   1    6    8     5     1    1.0432E+01  2.2686E-01   1.0205E+01  0.000E+00  0.000E+00  0.000E+00  1.05868E+03  6.790E-01  1.542E+01  6.166E-02  1.226E+00
   1    7    7     5     2    1.0205E+01  2.7894E-01   9.9265E+00  0.000E+00  0.000E+00  0.000E+00  1.05417E+03  6.732E-01  1.519E+01  7.594E-02  1.224E+00
   1    8    7     5     3    9.9265E+00  1.9221E-01   9.7343E+00  0.000E+00  0.000E+00  0.000E+00  1.04992E+03  6.676E-01  1.497E+01  5.241E-02  1.223E+00
   1    8    6     5     4    9.7343E+00  1.3577E-01   9.5985E+00  0.000E+00  0.000E+00  0.000E+00  1.04691E+03  6.637E-01  1.482E+01  3.706E-02  1.221E+00
   1    9    6     6     1    5.1697E+01  2.9310E-01   5.1404E+01  0.000E+00  0.000E+00  0.000E+00  1.04461E+03  1.885E+00  1.200E+01  6.000E-02  1.628E+00
   1   10    7     6     2    5.1404E+01  2.9271E-01   5.1112E+01  0.000E+00  0.000E+00  0.000E+00  1.04006E+03  1.879E+00  1.200E+01  6.000E-02  1.626E+00
   1   11    7     6     3    5.1112E+01  2.9233E-01   5.0819E+01  0.000E+00  0.000E+00  0.000E+00  1.03551E+03  1.872E+00  1.200E+01  6.000E-02  1.624E+00
   1   12    7     6     4    5.0819E+01  2.9194E-01   5.0527E+01  0.000E+00  0.000E+00  0.000E+00  1.03096E+03  1.866E+00  1.200E+01  6.000E-02  1.622E+00
   1   13    7     6     5    5.0527E+01  1.5558E-02   5.0512E+01  0.000E+00  0.000E+00  0.000E+00  1.02777E+03  1.862E+00  1.200E+01  2.400E-02  2.161E-01
   1   14    9     7     1    1.5000E+02  1.3367E+00   1.4866E+02  0.000E+00  0.000E+00  0.000E+00  1.03987E+03  2.288E+00  5.529E+01  5.593E-01  7.966E-01
   1   13    8     7     2    1.4866E+02  1.8257E+00   1.4684E+02  0.000E+00  0.000E+00  0.000E+00  1.03478E+03  2.279E+00  5.526E+01  6.148E-01  9.899E-01
   1   13    7     7     3    1.4684E+02  1.4335E+00   1.4540E+02  0.000E+00  0.000E+00  0.000E+00  1.02969E+03  2.271E+00  5.522E+01  5.585E-01  8.556E-01
   1   13    6     8     1    1.9592E+02  9.8871E-01   1.9493E+02  0.000E+00  0.000E+00  0.000E+00  1.02499E+03  3.111E+00  4.510E+01  4.596E-01  7.171E-01
   1   13    5     8     2    1.9493E+02  1.9914E-01   1.9473E+02  0.000E+00  0.000E+00  0.000E+00  1.01873E+03  3.107E+00  4.505E+01  4.591E-01  1.446E-01
   1   13    4     8     3    1.9473E+02 -2.3279E+00   1.9706E+02  0.000E+00  0.000E+00  0.000E+00  1.01249E+03  3.113E+00  4.514E+01  4.600E+00 -1.687E-01
   1   13    3     8     4    1.9706E+02 -3.5131E+00   2.0057E+02  0.000E+00  0.000E+00  0.000E+00  1.00626E+03  3.131E+00  4.540E+01  4.626E+00 -2.531E-01
   1   13    2     8     5    2.0057E+02 -2.4367E+00   2.0301E+02  0.000E+00  0.000E+00  0.000E+00  1.00002E+03  3.148E+00  4.565E+01  4.652E+00 -1.746E-01
   1   13    1     8     6    2.0301E+02 -1.9256E+00   2.0493E+02  0.000E+00  0.000E+00  0.000E+00  9.95036E+02  3.161E+00  4.583E+01  2.802E+00 -2.290E-01
   1    8    6     9     1    6.6396E-07  0.0000E+00   6.6396E-07  0.000E+00  0.000E+00  0.000E+00  1.07875E+03  8.769E-05  4.000E+00  0.000E+00  1.000E+00
   1    8    5     9     2    6.6396E-07  0.0000E+00   6.6396E-07  0.000E+00  0.000E+00  0.000E+00  1.07825E+03  8.769E-05  4.000E+00  0.000E+00  1.000E+00





UNSATURATED ZONE PACKAGE VOLUMETRIC BUDGET FOR  TIME STEP    30 STRESS PERIOD   18
  ------------------------------------------------------------------------------



     CUMULATIVE VOLUMES      L**3       RATES FOR THIS TIME STEP      L**3/T
     ------------------                 ------------------------

           IN:                                      IN:
           ---                                      ---
        INFILTRATION =   558934246.0789          INFILTRATION =           0.8475

          OUT:                                     OUT:
          ----                                     ----
              UZF ET =   471026800.4288                UZF ET =           8.3175
        UZF RECHARGE =       73224.0000          UZF RECHARGE =       0.0000E+00

            IN - OUT =    87834221.6500              IN - OUT =          -7.4700

          STORAGE:                                 STORAGE:
          --------                                 --------
      STORAGE CHANGE =    87834390.7185        STORAGE CHANGE =          -7.4699

 PERCENT DISCREPANCY IS DIFFERENCE BETWEEN IN-OUT MINUS CHANGE IN STORAGE
 DIVIDED BY THE AVERAGE OF IN AND OUT TIMES 100

 PERCENT DISCREPANCY =          -0.00     PERCENT DISCREPANCY =          -0.00






1
  VOLUMETRIC BUDGET FOR AGRICULTURAL FIELDS AT  END OF TIME STEP   30, STRESS PERIOD  18
  ------------------------------------------------------------------------------

     CUMULATIVE VOLUMES      L**3       RATES FOR THIS TIME STEP      L**3/T
     ------------------                 ------------------------

           IN:                                      IN:
           ---                                      ---
               AG WELLS  =   151827360.0000                 AG WELLS  =       2.2132E-07
      DIVERSION SEGMENTS =   369137152.0000        DIVERSION SEGMENTS =       6.6396E-07
           GW IRRIGATION =           0.0000             GW IRRIGATION =           0.0000
           SW IRRIGATION =           0.0000             SW IRRIGATION =           0.0000
        SYSTEM LOSSES GW =           0.0000          SYSTEM LOSSES GW =           0.0000
        SYSTEM LOSSES SW =           0.0000          SYSTEM LOSSES SW =           0.0000

                TOTAL IN =   520964512.0000                  TOTAL IN =       8.8528E-07

          OUT:                                     OUT:
          ----                                     ----
               AG WELLS  =           0.0000                 AG WELLS  =           0.0000
      DIVERSION SEGMENTS =           0.0000        DIVERSION SEGMENTS =           0.0000
           GW IRRIGATION =   151827360.0000             GW IRRIGATION =       2.2132E-07
           SW IRRIGATION =   369144544.0000             SW IRRIGATION =       6.6397E-07
        SYSTEM LOSSES GW =           0.0000          SYSTEM LOSSES GW =           0.0000
        SYSTEM LOSSES SW =           0.0000          SYSTEM LOSSES SW =           0.0000

               TOTAL OUT =   520971904.0000                 TOTAL OUT =       8.8529E-07

                IN - OUT =       -7392.0000                  IN - OUT =      -1.3188E-11

     PERCENT DISCREPANCY =          -0.00         PERCENT DISCREPANCY =          -0.00



1
  VOLUMETRIC BUDGET FOR ENTIRE MODEL AT END OF TIME STEP   30, STRESS PERIOD  18
  ------------------------------------------------------------------------------

     CUMULATIVE VOLUMES      L**3       RATES FOR THIS TIME STEP      L**3/T
     ------------------                 ------------------------

           IN:                                      IN:
           ---                                      ---
             STORAGE     =   272911360.0000               STORAGE     =           0.7483
       CONSTANT HEAD     =           0.0000         CONSTANT HEAD     =           0.0000
     HEAD DEP BOUNDS     =    12800713.0000       HEAD DEP BOUNDS     =           0.2858
      STREAM LEAKAGE     =   539521344.0000        STREAM LEAKAGE     =          12.5227
        UZF RECHARGE     =       73223.9531          UZF RECHARGE     =           0.0000
               GW ET     =           0.0000                 GW ET     =           0.0000
     SURFACE LEAKAGE     =           0.0000       SURFACE LEAKAGE     =           0.0000
           AG WELLS      =           0.0000             AG WELLS      =           0.0000

                TOTAL IN =   825306624.0000                  TOTAL IN =          13.5568

          OUT:                                     OUT:
          ----                                     ----
             STORAGE     =   177409360.0000               STORAGE     =           3.0230
       CONSTANT HEAD     =           0.0000         CONSTANT HEAD     =           0.0000
     HEAD DEP BOUNDS     =    13049367.0000       HEAD DEP BOUNDS     =           0.2935
      STREAM LEAKAGE     =   480894688.0000        STREAM LEAKAGE     =          10.2032
        UZF RECHARGE     =           0.0000          UZF RECHARGE     =           0.0000
               GW ET     =     2134580.7500                 GW ET     =       3.7721E-02
     SURFACE LEAKAGE     =           0.0000       SURFACE LEAKAGE     =           0.0000
           AG WELLS      =   151827360.0000             AG WELLS      =       2.2132E-07

               TOTAL OUT =   825315328.0000                 TOTAL OUT =          13.5574

                IN - OUT =       -8704.0000                  IN - OUT =      -6.4754E-04

     PERCENT DISCREPANCY =          -0.00         PERCENT DISCREPANCY =          -0.00






         TIME SUMMARY AT END OF TIME STEP   30 IN STRESS PERIOD   18
                    SECONDS     MINUTES      HOURS       DAYS        YEARS
                    -----------------------------------------------------------
   TIME STEP LENGTH  87667.      1461.1      24.352      1.0147     2.77799E-03
 STRESS PERIOD TIME 2.63000E+06  43833.      730.56      30.440     8.33397E-02
         TOTAL TIME 4.47965E+07 7.46608E+05  12443.      518.48      1.4195    
1
1
                            STRESS PERIOD NO.   19, LENGTH =   2630000.    
                            -----------------------------------------------

                              NUMBER OF TIME STEPS =    30

                               MULTIPLIER FOR DELT =     1.000

                            INITIAL TIME STEP SIZE =   87666.66    

 REUSING NON-PARAMETER GHB CELLS FROM LAST STRESS PERIOD

      2 GHB CELLS

 REUSING STREAM SEGMENT DATA FROM LAST STRESS PERIOD



            AREAL INFILTRATION RATE
 READING ON UNIT   19 WITH FORMAT: (FREE)              

            1           2           3           4           5           6           7           8           9          10
 ........................................................................................................................
   1   1.0000E-10  2.0000E-10   0.000       0.000       0.000       0.000       0.000       0.000       0.000       0.000    
   2   2.0000E-10  1.0000E-10  2.0000E-10   0.000       0.000      8.0000E-10  8.0000E-10  5.0000E-10   0.000       0.000    
   3    0.000      5.0000E-10  1.0000E-10  1.0000E-10  8.0000E-10  8.0000E-10  5.0000E-10  5.0000E-10   0.000       0.000    
   4   8.0000E-10  5.0000E-10  1.0000E-10  1.0000E-10  1.0000E-10  1.0000E-10  1.0000E-10  1.0000E-10  2.0000E-10   0.000    
   5   8.0000E-10  5.0000E-10  1.0000E-10  1.0000E-10  1.0000E-10  1.0000E-10  1.0000E-10  1.0000E-10  1.0000E-10  1.0000E-10
   6   8.0000E-10  5.0000E-10  5.0000E-10  2.0000E-10  2.0000E-10  1.0000E-10  1.0000E-10  1.0000E-10  1.0000E-10  5.0000E-10
   7   8.0000E-10  5.0000E-10  5.0000E-10  2.0000E-10  2.0000E-10  1.0000E-10  1.0000E-10  2.0000E-10  2.0000E-10   0.000    
   8    0.000      5.0000E-10  5.0000E-10  2.0000E-10  2.0000E-10  1.0000E-10  1.0000E-10  2.0000E-10  5.0000E-10   0.000    
   9    0.000      5.0000E-10  5.0000E-10  2.0000E-10  2.0000E-10  1.0000E-10  1.0000E-10  2.0000E-10  5.0000E-10   0.000    
  10    0.000      5.0000E-10  5.0000E-10  2.0000E-10  2.0000E-10  1.0000E-10  1.0000E-10  2.0000E-10  5.0000E-10  8.0000E-10
  11    0.000      1.0000E-10  1.0000E-10  1.0000E-10  1.0000E-10  1.0000E-10  1.0000E-10  2.0000E-10  5.0000E-10   0.000    
  12   1.0000E-10  1.0000E-10  1.0000E-10  1.0000E-10  1.0000E-10  1.0000E-10  1.0000E-10  1.0000E-10  2.0000E-10   0.000    
  13   1.0000E-10  1.0000E-10  2.0000E-10  2.0000E-10  2.0000E-10  2.0000E-10  2.0000E-10  1.0000E-10  1.0000E-10   0.000    
  14    0.000      2.0000E-10  5.0000E-10  5.0000E-10  5.0000E-10  5.0000E-10  5.0000E-10  2.0000E-10  1.0000E-10   0.000    
  15    0.000       0.000      8.0000E-10  8.0000E-10  8.0000E-10  8.0000E-10   0.000       0.000       0.000       0.000    

                  ET RATE =  1.500000E-07

 USING ET EXTINCTION DEPTH FROM PREVIOUS STRESS PERIOD. CURRENT PERIOD IS:      19

 USING EXTINCTION WATER CONTENT FROM PREVIOUS STRESS PERIOD. CURRENT PERIOD IS:      19

 USING AIR ENTRY PRESSURE FROM PREVIOUS STRESS PERIOD. CURRENT PERIOD IS:      19

 USING ROOT PRESSURE HEAD FROM PREVIOUS STRESS PERIOD. CURRENT PERIOD IS:      19

 USING ROOT ACTIVITY FROM PREVIOUS STRESS PERIOD. CURRENT PERIOD IS:      19

 PROCESSING AG STRESS PERIOD DATA

 READING AG STRESS PERIOD DATA

 READING IRRIGATION SEGMENT

 READING IRRIGATION WELL

 READING SUPPLEMENTAL WELL

 END PROCESSING AG STRESS PERIOD DATA OPTIONS
 
 SOLVING FOR HEAD 
                                                   Max.-Head-Change                         Max.-Flux-Residual
  Residual-Control   Outer-Iter.   Inner-Iter.     Column Row Layer    Maximum-Head-Change  Column Row Layer    Maximum-Flux-Residual          L2-NORM 
          0                 1           2             1    1     1       0.2833001066E-02       1    1    1         0.1470166795E+00      0.4631880950E+00
          0                 2           2             4    7     1      -0.6994861834E-01       4    7    1        -0.3756742330E+01      0.9238321358E+01
          0                 3           2             4    7     1       0.5343685714E-01       4    7    1         0.2950154664E+01      0.7246033184E+01
          0                 4           2             4    7     1      -0.2126577285E-02       4    6    1        -0.1216610490E+00      0.2989741649E+00
          0                 5           1             4    7     1       0.2622154329E-04       3   13    1        -0.1690886651E-02      0.4416746450E-02

    ------------------------------------------------
       NWT REQUIRED            5 OUTER ITERATIONS 
       AND A TOTAL OF          9 INNER ITERATIONS.
    ------------------------------------------------

 OUTPUT CONTROL FOR STRESS PERIOD   19   TIME STEP    1
    PRINT BUDGET
    SAVE BUDGET
 UBDSV1 SAVING "         STORAGE" ON UNIT 102 AT TIME STEP  1, STRESS PERIOD  19
 UBDSV2 SAVING "   CONSTANT HEAD" ON UNIT 102 AT TIME STEP  1, STRESS PERIOD  19
 UBDSV1 SAVING "FLOW RIGHT FACE " ON UNIT 102 AT TIME STEP  1, STRESS PERIOD  19
 UBDSV1 SAVING "FLOW FRONT FACE " ON UNIT 102 AT TIME STEP  1, STRESS PERIOD  19

  HEAD DEP BOUNDS   PERIOD   19   STEP     1
 BOUNDARY      1   LAYER   1   ROW    13   COL     1   RATE   -0.293201    
 BOUNDARY      2   LAYER   1   ROW    14   COL     9   RATE    0.285819    



 STREAM LISTING     PERIOD     19   STEP        1

 LAYER ROW COL. STREAM  RCH.  FLOW INTO     FLOW TO   FLOW OUT OF   OVRLND.     DIRECT     STREAM       STREAM     STREAM     STREAM   STREAMBED  STREAMBED
                SEG.NO.  NO.  STRM. RCH.    AQUIFER    STRM. RCH.    RUNOFF     PRECIP       ET          HEAD       DEPTH      WIDTH   CONDCTNC.   GRADIENT

   1    1    1     1     1    4.3652E+01  3.1614E-01   4.3336E+01  0.000E+00  0.000E+00  0.000E+00  1.09441E+03  1.357E+00  1.612E+01  7.255E-02  1.452E+00
   1    2    2     1     2    4.3336E+01  4.8972E-01   4.2846E+01  0.000E+00  0.000E+00  0.000E+00  1.08941E+03  1.355E+00  1.607E+01  1.125E-01  1.452E+00
   1    3    3     1     3    4.2846E+01  4.1777E-01   4.2428E+01  0.000E+00  0.000E+00  0.000E+00  1.08377E+03  1.351E+00  1.600E+01  9.601E-02  1.450E+00
   1    3    4     1     4    4.2428E+01  3.8480E-01   4.2043E+01  0.000E+00  0.000E+00  0.000E+00  1.07876E+03  1.349E+00  1.594E+01  8.849E-02  1.450E+00
   1    4    5     2     1    4.0043E+01  3.5862E-01   3.9685E+01  0.000E+00  0.000E+00  0.000E+00  1.07353E+03  1.598E+00  1.200E+01  7.800E-02  1.533E+00
   1    5    6     2     2    3.9685E+01  2.7540E-01   3.9409E+01  0.000E+00  0.000E+00  0.000E+00  1.06810E+03  1.590E+00  1.200E+01  6.000E-02  1.530E+00
   1    6    6     2     3    3.9409E+01  2.7500E-01   3.9134E+01  0.000E+00  0.000E+00  0.000E+00  1.06338E+03  1.583E+00  1.200E+01  6.000E-02  1.528E+00
   1    7    6     2     4    3.9134E+01  2.7461E-01   3.8860E+01  0.000E+00  0.000E+00  0.000E+00  1.05865E+03  1.577E+00  1.200E+01  6.000E-02  1.526E+00
   1    8    6     2     5    3.8860E+01  2.7421E-01   3.8585E+01  0.000E+00  0.000E+00  0.000E+00  1.05393E+03  1.570E+00  1.200E+01  6.000E-02  1.523E+00
   1    3    5     3     1    2.0000E+00  2.8252E-01   1.7175E+00  0.000E+00  0.000E+00  0.000E+00  1.07555E+03  1.909E+00  9.636E+00  7.227E-02  1.955E+00
   1    3    6     3     2    1.7175E+00  2.4905E-01   1.4684E+00  0.000E+00  0.000E+00  0.000E+00  1.07264E+03  1.727E+00  8.909E+00  6.682E-02  1.864E+00
   1    3    7     3     3    1.4684E+00  1.9718E-01   1.2712E+00  0.000E+00  0.000E+00  0.000E+00  1.06987E+03  1.555E+00  8.218E+00  5.547E-02  1.777E+00
   1    4    8     3     4    1.2712E+00  2.2567E-01   1.0456E+00  0.000E+00  0.000E+00  0.000E+00  1.06682E+03  1.364E+00  7.455E+00  6.709E-02  1.682E+00
   1    5    8     3     5    1.0456E+00  1.5790E-01   8.8768E-01  0.000E+00  0.000E+00  0.000E+00  1.06362E+03  1.164E+00  6.655E+00  4.991E-02  1.582E+00
   1    6    8     3     6    8.8768E-01  5.5980E-02   8.3170E-01  0.000E+00  0.000E+00  0.000E+00  1.06158E+03  1.036E+00  6.145E+00  1.844E-02  1.518E+00
   1    5   10     4     1    1.0000E+01  9.0919E-02   9.9091E+00  0.000E+00  0.000E+00  0.000E+00  1.07836E+03  6.368E-01  1.000E+01  2.500E-02  1.212E+00
   1    5    9     4     2    9.9091E+00  1.8158E-01   9.7275E+00  0.000E+00  0.000E+00  0.000E+00  1.07154E+03  6.315E-01  1.000E+01  5.000E-02  1.211E+00
   1    6    8     4     3    9.7275E+00  1.2689E-01   9.6006E+00  0.000E+00  0.000E+00  0.000E+00  1.06381E+03  6.256E-01  1.000E+01  3.500E-02  1.209E+00
   1    6    8     5     1    1.0432E+01  2.2686E-01   1.0205E+01  0.000E+00  0.000E+00  0.000E+00  1.05868E+03  6.790E-01  1.542E+01  6.166E-02  1.226E+00
   1    7    7     5     2    1.0205E+01  2.7894E-01   9.9265E+00  0.000E+00  0.000E+00  0.000E+00  1.05417E+03  6.732E-01  1.519E+01  7.594E-02  1.224E+00
   1    8    7     5     3    9.9265E+00  1.9221E-01   9.7343E+00  0.000E+00  0.000E+00  0.000E+00  1.04992E+03  6.676E-01  1.497E+01  5.241E-02  1.223E+00
   1    8    6     5     4    9.7343E+00  1.3577E-01   9.5985E+00  0.000E+00  0.000E+00  0.000E+00  1.04691E+03  6.637E-01  1.482E+01  3.706E-02  1.221E+00
   1    9    6     6     1    9.5985E+00  2.2097E-01   9.3776E+00  0.000E+00  0.000E+00  0.000E+00  1.04341E+03  6.828E-01  1.200E+01  6.000E-02  1.228E+00
   1   10    7     6     2    9.3776E+00  2.2039E-01   9.1572E+00  0.000E+00  0.000E+00  0.000E+00  1.03885E+03  6.732E-01  1.200E+01  6.000E-02  1.224E+00
   1   11    7     6     3    9.1572E+00  2.1981E-01   8.9374E+00  0.000E+00  0.000E+00  0.000E+00  1.03430E+03  6.636E-01  1.200E+01  6.000E-02  1.221E+00
   1   12    7     6     4    8.9374E+00  2.1923E-01   8.7181E+00  0.000E+00  0.000E+00  0.000E+00  1.02974E+03  6.539E-01  1.200E+01  6.000E-02  1.218E+00
   1   13    7     6     5    8.7181E+00 -1.3428E-01   8.8524E+00  0.000E+00  0.000E+00  0.000E+00  1.02656E+03  6.520E-01  1.200E+01  2.400E-01 -1.865E-01
   1   14    9     7     1    1.5000E+02  1.3367E+00   1.4866E+02  0.000E+00  0.000E+00  0.000E+00  1.03987E+03  2.288E+00  5.529E+01  5.593E-01  7.966E-01
   1   13    8     7     2    1.4866E+02  1.8258E+00   1.4684E+02  0.000E+00  0.000E+00  0.000E+00  1.03478E+03  2.279E+00  5.526E+01  6.148E-01  9.899E-01
   1   13    7     7     3    1.4684E+02  1.4349E+00   1.4540E+02  0.000E+00  0.000E+00  0.000E+00  1.02969E+03  2.271E+00  5.522E+01  5.585E-01  8.565E-01
   1   13    6     8     1    1.5426E+02  7.9311E-01   1.5346E+02  0.000E+00  0.000E+00  0.000E+00  1.02472E+03  2.844E+00  4.124E+01  4.202E-01  6.292E-01
   1   13    5     8     2    1.5346E+02  7.1282E-02   1.5339E+02  0.000E+00  0.000E+00  0.000E+00  1.01847E+03  2.841E+00  4.119E+01  4.198E-01  5.661E-02
   1   13    4     8     3    1.5339E+02 -3.1841E+00   1.5657E+02  0.000E+00  0.000E+00  0.000E+00  1.01223E+03  2.852E+00  4.135E+01  4.213E+00 -2.519E-01
   1   13    3     8     4    1.5657E+02 -4.2613E+00   1.6084E+02  0.000E+00  0.000E+00  0.000E+00  1.00600E+03  2.877E+00  4.172E+01  4.251E+00 -3.341E-01
   1   13    2     8     5    1.6084E+02 -3.2493E+00   1.6409E+02  0.000E+00  0.000E+00  0.000E+00  9.99777E+02  2.902E+00  4.208E+01  4.289E+00 -2.526E-01
   1   13    1     8     6    1.6409E+02 -2.3817E+00   1.6647E+02  0.000E+00  0.000E+00  0.000E+00  9.94796E+02  2.921E+00  4.236E+01  2.590E+00 -3.065E-01
   1    8    6     9     1    3.8585E+01  0.0000E+00   3.8585E+01  0.000E+00  0.000E+00  0.000E+00  1.08384E+03  5.095E+00  4.000E+00  0.000E+00  2.698E+00
   1    8    5     9     2    3.8585E+01  0.0000E+00   3.8585E+01  0.000E+00  0.000E+00  0.000E+00  1.08334E+03  5.095E+00  4.000E+00  0.000E+00  2.698E+00



 UBDSV3 SAVING "           GW ET" ON UNIT  61 AT TIME STEP  1, STRESS PERIOD  19
 UBDSV3 SAVING "    UZF RECHARGE" ON UNIT  61 AT TIME STEP  1, STRESS PERIOD  19
 UBDSV3 SAVING " SURFACE LEAKAGE" ON UNIT  61 AT TIME STEP  1, STRESS PERIOD  19
 UBDSV3 SAVING "       HORT+DUNN" ON UNIT  61 AT TIME STEP  1, STRESS PERIOD  19
 UBDSV3 SAVING "  STORAGE CHANGE" ON UNIT  61 AT TIME STEP  1, STRESS PERIOD  19


UNSATURATED ZONE PACKAGE VOLUMETRIC BUDGET FOR  TIME STEP     1 STRESS PERIOD   19
  ------------------------------------------------------------------------------



     CUMULATIVE VOLUMES      L**3       RATES FOR THIS TIME STEP      L**3/T
     ------------------                 ------------------------

           IN:                                      IN:
           ---                                      ---
        INFILTRATION =   562947013.1997          INFILTRATION =          45.7730

          OUT:                                     OUT:
          ----                                     ----
              UZF ET =   473070967.9247                UZF ET =          23.3175
        UZF RECHARGE =       73224.0000          UZF RECHARGE =       0.0000E+00

            IN - OUT =    89802821.2750              IN - OUT =          22.4555

          STORAGE:                                 STORAGE:
          --------                                 --------
      STORAGE CHANGE =    89802990.3083        STORAGE CHANGE =          22.4555

 PERCENT DISCREPANCY IS DIFFERENCE BETWEEN IN-OUT MINUS CHANGE IN STORAGE
 DIVIDED BY THE AVERAGE OF IN AND OUT TIMES 100

 PERCENT DISCREPANCY =          -0.00     PERCENT DISCREPANCY =           0.00






 

            AG WELLS      PERIOD   19   STEP   1
 AG WELL      1   LAYER   1   ROW     6   COL     4   RATE    -1.05654    
 AG WELL      2   LAYER   1   ROW     6   COL     5   RATE    -1.05654    
 AG WELL      3   LAYER   1   ROW     7   COL     4   RATE    -1.05654    
 AG WELL      4   LAYER   1   ROW     7   COL     5   RATE    -1.05654    
 AG WELL      5   LAYER   1   ROW     8   COL     4   RATE    -1.05654    
 AG WELL      6   LAYER   1   ROW     8   COL     5   RATE    -1.05654    
 
 

   DIVERSION SEGMENTS     PERIOD   19   STEP   1
 SEGMENT      9   RATE     38.5855    
 
 

        SW IRRIGATION     PERIOD   19   STEP   1
 SEGMENT      9   ROW     6   COL     4   RATE     6.43104    
 SEGMENT      9   ROW     6   COL     5   RATE     6.43104    
 SEGMENT      9   ROW     7   COL     4   RATE     6.43104    
 SEGMENT      9   ROW     7   COL     5   RATE     6.43104    
 SEGMENT      9   ROW     8   COL     4   RATE     6.43104    
 SEGMENT      9   ROW     8   COL     5   RATE     6.43104    
 
 

        GW IRRIGATION     PERIOD   19   STEP   1
 AG WELL      1   ROW     6   COL     4   RATE     1.05654    
 AG WELL      2   ROW     6   COL     5   RATE     1.05654    
 AG WELL      3   ROW     7   COL     4   RATE     1.05654    
 AG WELL      4   ROW     7   COL     5   RATE     1.05654    
 AG WELL      5   ROW     8   COL     4   RATE     1.05654    
 AG WELL      6   ROW     8   COL     5   RATE     1.05654    
 
1
  VOLUMETRIC BUDGET FOR AGRICULTURAL FIELDS AT  END OF TIME STEP    1, STRESS PERIOD  19
  ------------------------------------------------------------------------------

     CUMULATIVE VOLUMES      L**3       RATES FOR THIS TIME STEP      L**3/T
     ------------------                 ------------------------

           IN:                                      IN:
           ---                                      ---
               AG WELLS  =   152383104.0000                 AG WELLS  =           6.3392
      DIVERSION SEGMENTS =   372519808.0000        DIVERSION SEGMENTS =          38.5855
           GW IRRIGATION =           0.0000             GW IRRIGATION =           0.0000
           SW IRRIGATION =           0.0000             SW IRRIGATION =           0.0000
        SYSTEM LOSSES GW =           0.0000          SYSTEM LOSSES GW =           0.0000
        SYSTEM LOSSES SW =           0.0000          SYSTEM LOSSES SW =           0.0000

                TOTAL IN =   524902912.0000                  TOTAL IN =          44.9247

          OUT:                                     OUT:
          ----                                     ----
               AG WELLS  =           0.0000                 AG WELLS  =           0.0000
      DIVERSION SEGMENTS =           0.0000        DIVERSION SEGMENTS =           0.0000
           GW IRRIGATION =   152383104.0000             GW IRRIGATION =           6.3392
           SW IRRIGATION =   372527264.0000             SW IRRIGATION =          38.5863
        SYSTEM LOSSES GW =           0.0000          SYSTEM LOSSES GW =           0.0000
        SYSTEM LOSSES SW =           0.0000          SYSTEM LOSSES SW =           0.0000

               TOTAL OUT =   524910368.0000                 TOTAL OUT =          44.9255

                IN - OUT =       -7456.0000                  IN - OUT =      -7.7057E-04

     PERCENT DISCREPANCY =          -0.00         PERCENT DISCREPANCY =          -0.00



1
  VOLUMETRIC BUDGET FOR ENTIRE MODEL AT END OF TIME STEP    1, STRESS PERIOD  19
  ------------------------------------------------------------------------------

     CUMULATIVE VOLUMES      L**3       RATES FOR THIS TIME STEP      L**3/T
     ------------------                 ------------------------

           IN:                                      IN:
           ---                                      ---
             STORAGE     =   273733632.0000               STORAGE     =           9.3794
       CONSTANT HEAD     =           0.0000         CONSTANT HEAD     =           0.0000
     HEAD DEP BOUNDS     =    12825770.0000       HEAD DEP BOUNDS     =           0.2858
      STREAM LEAKAGE     =   540556672.0000        STREAM LEAKAGE     =          11.8099
        UZF RECHARGE     =       73223.9531          UZF RECHARGE     =           0.0000
               GW ET     =           0.0000                 GW ET     =           0.0000
     SURFACE LEAKAGE     =           0.0000       SURFACE LEAKAGE     =           0.0000
           AG WELLS      =           0.0000             AG WELLS      =           0.0000

                TOTAL IN =   827189248.0000                  TOTAL IN =          21.4751

          OUT:                                     OUT:
          ----                                     ----
             STORAGE     =   177549488.0000               STORAGE     =           1.5983
       CONSTANT HEAD     =           0.0000         CONSTANT HEAD     =           0.0000
     HEAD DEP BOUNDS     =    13075071.0000       HEAD DEP BOUNDS     =           0.2932
      STREAM LEAKAGE     =   482052832.0000        STREAM LEAKAGE     =          13.2106
        UZF RECHARGE     =           0.0000          UZF RECHARGE     =           0.0000
               GW ET     =     2137500.5000                 GW ET     =       3.3305E-02
     SURFACE LEAKAGE     =           0.0000       SURFACE LEAKAGE     =           0.0000
           AG WELLS      =   152383104.0000             AG WELLS      =           6.3392

               TOTAL OUT =   827197952.0000                 TOTAL OUT =          21.4747

                IN - OUT =       -8704.0000                  IN - OUT =       3.2043E-04

     PERCENT DISCREPANCY =          -0.00         PERCENT DISCREPANCY =           0.00






         TIME SUMMARY AT END OF TIME STEP    1 IN STRESS PERIOD   19
                    SECONDS     MINUTES      HOURS       DAYS        YEARS
                    -----------------------------------------------------------
   TIME STEP LENGTH  87667.      1461.1      24.352      1.0147     2.77799E-03
 STRESS PERIOD TIME  87667.      1461.1      24.352      1.0147     2.77799E-03
         TOTAL TIME 4.48841E+07 7.48069E+05  12468.      519.49      1.4223    
1
 
 SOLVING FOR HEAD 
                                                   Max.-Head-Change                         Max.-Flux-Residual
  Residual-Control   Outer-Iter.   Inner-Iter.     Column Row Layer    Maximum-Head-Change  Column Row Layer    Maximum-Flux-Residual          L2-NORM 
          0                 1           2             1    1     1       0.2821532350E-02       1    1    1         0.1464208613E+00      0.5250278227E+00
          0                 2           2             7   13     1      -0.2422145664E-02       7   13    1        -0.1344356791E+00      0.1431775901E+00
          0                 3           2             7   13     1       0.1648935662E-03       7   13    1         0.9407462752E-02      0.1001104441E-01
          0                 4           1             7   13     1      -0.6558184579E-05       7   13    1        -0.3845410554E-03      0.4088703509E-03

    ------------------------------------------------
       NWT REQUIRED            4 OUTER ITERATIONS 
       AND A TOTAL OF          7 INNER ITERATIONS.
    ------------------------------------------------

 NO OUTPUT CONTROL FOR STRESS PERIOD   19   TIME STEP    2
 
 SOLVING FOR HEAD 
                                                   Max.-Head-Change                         Max.-Flux-Residual
  Residual-Control   Outer-Iter.   Inner-Iter.     Column Row Layer    Maximum-Head-Change  Column Row Layer    Maximum-Flux-Residual          L2-NORM 
          0                 1           2             1    1     1       0.2819575695E-02       1    1    1         0.1463191412E+00      0.5008743773E+00
          0                 2           2             4    7     1      -0.6998194415E-01       4    6    1        -0.3758669717E+01      0.9247153620E+01
          0                 3           2             4    7     1       0.5297094567E-01       4    7    1         0.2924435510E+01      0.7183362763E+01
          0                 4           2             4    7     1      -0.2107904832E-02       4    6    1        -0.1200298230E+00      0.2950432798E+00
          0                 5           1             4    7     1       0.2599130553E-04       4    6    1         0.1521143537E-02      0.3980435242E-02

    ------------------------------------------------
       NWT REQUIRED            5 OUTER ITERATIONS 
       AND A TOTAL OF          9 INNER ITERATIONS.
    ------------------------------------------------

 NO OUTPUT CONTROL FOR STRESS PERIOD   19   TIME STEP    3
 
 SOLVING FOR HEAD 
                                                   Max.-Head-Change                         Max.-Flux-Residual
  Residual-Control   Outer-Iter.   Inner-Iter.     Column Row Layer    Maximum-Head-Change  Column Row Layer    Maximum-Flux-Residual          L2-NORM 
          0                 1           2             4   13     1       0.3249408668E-02       4   13    1         0.1874019349E+00      0.5883876556E+00
          0                 2           2             7   13     1      -0.2438543840E-02       7   13    1        -0.1353426142E+00      0.1460130148E+00
          0                 3           2             7   13     1       0.1660098719E-03       7   13    1         0.9470918681E-02      0.1019967394E-01
          0                 4           1             7   13     1      -0.6602312298E-05       7   13    1        -0.3871177548E-03      0.4157610004E-03

    ------------------------------------------------
       NWT REQUIRED            4 OUTER ITERATIONS 
       AND A TOTAL OF          7 INNER ITERATIONS.
    ------------------------------------------------

 NO OUTPUT CONTROL FOR STRESS PERIOD   19   TIME STEP    4
 
 SOLVING FOR HEAD 
                                                   Max.-Head-Change                         Max.-Flux-Residual
  Residual-Control   Outer-Iter.   Inner-Iter.     Column Row Layer    Maximum-Head-Change  Column Row Layer    Maximum-Flux-Residual          L2-NORM 
          0                 1           2             4   13     1       0.2973017732E-02       4   13    1         0.1714003643E+00      0.5600869305E+00
          0                 2           2             4    7     1      -0.6999325669E-01       5    6    1        -0.3760526619E+01      0.9253368512E+01
          0                 3           2             4    7     1       0.5297161124E-01       5    6    1         0.2924581889E+01      0.7184827664E+01
          0                 4           2             4    7     1      -0.2107836124E-02       4    8    1        -0.1196210278E+00      0.2954478660E+00
          0                 5           1             4    7     1       0.2599045847E-04       5    8    1         0.1515956628E-02      0.4010448696E-02

    ------------------------------------------------
       NWT REQUIRED            5 OUTER ITERATIONS 
       AND A TOTAL OF          9 INNER ITERATIONS.
    ------------------------------------------------

 NO OUTPUT CONTROL FOR STRESS PERIOD   19   TIME STEP    5
 
 SOLVING FOR HEAD 
                                                   Max.-Head-Change                         Max.-Flux-Residual
  Residual-Control   Outer-Iter.   Inner-Iter.     Column Row Layer    Maximum-Head-Change  Column Row Layer    Maximum-Flux-Residual          L2-NORM 
          0                 1           2             4   13     1       0.4017302005E-02       4   13    1         0.2317778141E+00      0.6445296351E+00
          0                 2           2             7   13     1      -0.2454050119E-02       7   13    1        -0.1362002255E+00      0.1488161082E+00
          0                 3           2             7   13     1       0.1670652146E-03       7   13    1         0.9530937502E-02      0.1038736512E-01
          0                 4           1             7   13     1      -0.6644427816E-05       7   13    1        -0.3895814000E-03      0.4231076449E-03

    ------------------------------------------------
       NWT REQUIRED            4 OUTER ITERATIONS 
       AND A TOTAL OF          7 INNER ITERATIONS.
    ------------------------------------------------

 NO OUTPUT CONTROL FOR STRESS PERIOD   19   TIME STEP    6
 
 SOLVING FOR HEAD 
                                                   Max.-Head-Change                         Max.-Flux-Residual
  Residual-Control   Outer-Iter.   Inner-Iter.     Column Row Layer    Maximum-Head-Change  Column Row Layer    Maximum-Flux-Residual          L2-NORM 
          0                 1           2             4   13     1       0.3664166234E-02       4   13    1         0.2113256918E+00      0.6111088539E+00
          0                 2           2             4    7     1      -0.7000622277E-01       5    6    1        -0.3762763300E+01      0.9257107317E+01
          0                 3           2             4    7     1       0.5297291663E-01       5    6    1         0.2924738462E+01      0.7183693397E+01
          0                 4           2             7   13     1      -0.2131873992E-02       5    8    1        -0.1196274157E+00      0.3187877649E+00
          0                 5           2             7   13     1       0.1451266423E-03       7   13    1         0.8314309772E-02      0.9258865456E-02
          0                 6           1             7   13     1      -0.5770995176E-05       7   13    1        -0.3398034853E-03      0.3453313509E-03

    ------------------------------------------------
       NWT REQUIRED            6 OUTER ITERATIONS 
       AND A TOTAL OF         11 INNER ITERATIONS.
    ------------------------------------------------

 NO OUTPUT CONTROL FOR STRESS PERIOD   19   TIME STEP    7
 
 SOLVING FOR HEAD 
                                                   Max.-Head-Change                         Max.-Flux-Residual
  Residual-Control   Outer-Iter.   Inner-Iter.     Column Row Layer    Maximum-Head-Change  Column Row Layer    Maximum-Flux-Residual          L2-NORM 
          0                 1           2             4   13     1       0.4642846968E-02       4   13    1         0.2678980845E+00      0.6985125244E+00
          0                 2           2             7   13     1      -0.2468755565E-02       7   13    1        -0.1370135456E+00      0.1516702659E+00
          0                 3           2             7   13     1       0.1680670821E-03       7   13    1         0.9587911178E-02      0.1057897048E-01
          0                 4           1             7   13     1      -0.6684102859E-05       7   13    1        -0.3919024778E-03      0.4301986646E-03

    ------------------------------------------------
       NWT REQUIRED            4 OUTER ITERATIONS 
       AND A TOTAL OF          7 INNER ITERATIONS.
    ------------------------------------------------

 NO OUTPUT CONTROL FOR STRESS PERIOD   19   TIME STEP    8
 
 SOLVING FOR HEAD 
                                                   Max.-Head-Change                         Max.-Flux-Residual
  Residual-Control   Outer-Iter.   Inner-Iter.     Column Row Layer    Maximum-Head-Change  Column Row Layer    Maximum-Flux-Residual          L2-NORM 
          0                 1           2             4   13     1       0.4227627448E-02       4   13    1         0.2438474968E+00      0.6604998063E+00
          0                 2           2             4    7     1      -0.7001951768E-01       5    6    1        -0.3764773515E+01      0.9261379578E+01
          0                 3           2             4    7     1       0.5297384685E-01       5    6    1         0.2924879177E+01      0.7184014509E+01
          0                 4           2             7   13     1      -0.2123547695E-02       5    8    1        -0.1196332055E+00      0.3186238494E+00
          0                 5           2             7   13     1       0.1445599997E-03       7   13    1         0.8281860636E-02      0.9228039438E-02
          0                 6           1             7   13     1      -0.5749001941E-05       7   13    1        -0.3385085733E-03      0.3439802479E-03

    ------------------------------------------------
       NWT REQUIRED            6 OUTER ITERATIONS 
       AND A TOTAL OF         11 INNER ITERATIONS.
    ------------------------------------------------

 NO OUTPUT CONTROL FOR STRESS PERIOD   19   TIME STEP    9
 
 SOLVING FOR HEAD 
                                                   Max.-Head-Change                         Max.-Flux-Residual
  Residual-Control   Outer-Iter.   Inner-Iter.     Column Row Layer    Maximum-Head-Change  Column Row Layer    Maximum-Flux-Residual          L2-NORM 
          0                 1           2             4   13     1       0.5153195559E-02       4   13    1         0.2973411826E+00      0.7487727389E+00
          0                 2           2             7   13     1      -0.2482682469E-02       7   13    1        -0.1377837715E+00      0.1544747005E+00
          0                 3           2             7   13     1       0.1690170458E-03       7   13    1         0.9641927898E-02      0.1076855704E-01
          0                 4           1             7   13     1      -0.6722551794E-05       7   13    1        -0.3941513228E-03      0.4377775821E-03

    ------------------------------------------------
       NWT REQUIRED            4 OUTER ITERATIONS 
       AND A TOTAL OF          7 INNER ITERATIONS.
    ------------------------------------------------

 NO OUTPUT CONTROL FOR STRESS PERIOD   19   TIME STEP   10
 
 SOLVING FOR HEAD 
                                                   Max.-Head-Change                         Max.-Flux-Residual
  Residual-Control   Outer-Iter.   Inner-Iter.     Column Row Layer    Maximum-Head-Change  Column Row Layer    Maximum-Flux-Residual          L2-NORM 
          0                 1           2             4   13     1       0.4687920770E-02       4   13    1         0.2703912273E+00      0.7067880441E+00
          0                 2           2             4    7     1      -0.7003346137E-01       5    6    1        -0.3766586567E+01      0.9265318321E+01
          0                 3           2             4    7     1       0.5299924752E-01       5    6    1         0.2925006092E+01      0.7184200606E+01
          0                 4           2             4    7     1      -0.2132699272E-02       4    7    1        -0.1211010548E+00      0.3190363400E+00
          0                 5           2             7   13     1       0.1440092271E-03       7   13    1         0.8250321353E-02      0.9203229737E-02
          0                 6           1             7   13     1      -0.5716975841E-05       7   13    1        -0.3366244441E-03      0.3421546502E-03

    ------------------------------------------------
       NWT REQUIRED            6 OUTER ITERATIONS 
       AND A TOTAL OF         11 INNER ITERATIONS.
    ------------------------------------------------

 NO OUTPUT CONTROL FOR STRESS PERIOD   19   TIME STEP   11
 
 SOLVING FOR HEAD 
                                                   Max.-Head-Change                         Max.-Flux-Residual
  Residual-Control   Outer-Iter.   Inner-Iter.     Column Row Layer    Maximum-Head-Change  Column Row Layer    Maximum-Flux-Residual          L2-NORM 
          0                 1           2             4   13     1       0.5570441733E-02       4   13    1         0.3213912605E+00      0.7948412149E+00
          0                 2           2             7   13     1      -0.2495893133E-02       7   13    1        -0.1385143722E+00      0.1571728355E+00
          0                 3           2             7   13     1       0.1699134420E-03       7   13    1         0.9692901281E-02      0.1095070204E-01
          0                 4           1             7   13     1      -0.6756992906E-05       7   13    1        -0.3961689404E-03      0.4447024600E-03

    ------------------------------------------------
       NWT REQUIRED            4 OUTER ITERATIONS 
       AND A TOTAL OF          7 INNER ITERATIONS.
    ------------------------------------------------

 NO OUTPUT CONTROL FOR STRESS PERIOD   19   TIME STEP   12
 
 SOLVING FOR HEAD 
                                                   Max.-Head-Change                         Max.-Flux-Residual
  Residual-Control   Outer-Iter.   Inner-Iter.     Column Row Layer    Maximum-Head-Change  Column Row Layer    Maximum-Flux-Residual          L2-NORM 
          0                 1           2             4   13     1       0.5064644324E-02       4   13    1         0.2920955136E+00      0.7494451393E+00
          0                 2           2             4    7     1      -0.7004793397E-01       5    6    1        -0.3768224284E+01      0.9268957947E+01
          0                 3           2             4    7     1       0.5299180556E-01       5    6    1         0.2925120733E+01      0.7184269321E+01
          0                 4           2             4    7     1      -0.2124179410E-02       4    7    1        -0.1205906504E+00      0.3186963940E+00
          0                 5           2             7   13     1       0.1435010484E-03       7   13    1         0.8221217730E-02      0.9176215306E-02
          0                 6           1             7   13     1      -0.5707334877E-05       7   13    1        -0.3360558953E-03      0.3414892484E-03

    ------------------------------------------------
       NWT REQUIRED            6 OUTER ITERATIONS 
       AND A TOTAL OF         11 INNER ITERATIONS.
    ------------------------------------------------

 NO OUTPUT CONTROL FOR STRESS PERIOD   19   TIME STEP   13
 
 SOLVING FOR HEAD 
                                                   Max.-Head-Change                         Max.-Flux-Residual
  Residual-Control   Outer-Iter.   Inner-Iter.     Column Row Layer    Maximum-Head-Change  Column Row Layer    Maximum-Flux-Residual          L2-NORM 
          0                 1           2             4   13     1       0.5912300486E-02       4   13    1         0.3410770453E+00      0.8367319077E+00
          0                 2           2             7   13     1      -0.2508436176E-02       7   13    1        -0.1392079879E+00      0.1597346767E+00
          0                 3           2             7   13     1       0.1707688933E-03       7   13    1         0.9741863653E-02      0.1112462596E-01
          0                 4           1             7   13     1      -0.6792013341E-05       7   13    1        -0.3982577923E-03      0.4519007575E-03

    ------------------------------------------------
       NWT REQUIRED            4 OUTER ITERATIONS 
       AND A TOTAL OF          7 INNER ITERATIONS.
    ------------------------------------------------

 NO OUTPUT CONTROL FOR STRESS PERIOD   19   TIME STEP   14
 
 SOLVING FOR HEAD 
                                                   Max.-Head-Change                         Max.-Flux-Residual
  Residual-Control   Outer-Iter.   Inner-Iter.     Column Row Layer    Maximum-Head-Change  Column Row Layer    Maximum-Flux-Residual          L2-NORM 
          0                 1           2             4   13     1       0.5373568981E-02       4   13    1         0.3098760369E+00      0.7884396860E+00
          0                 2           2             4    7     1      -0.7006275476E-01       5    6    1        -0.3769710061E+01      0.9272328933E+01
          0                 3           2             4    7     1       0.5298472291E-01       5    6    1         0.2925201481E+01      0.7184287001E+01
          0                 4           2             4    7     1      -0.2116000274E-02       4    7    1        -0.1201006581E+00      0.3183541436E+00
          0                 5           2             7   13     1       0.1430092651E-03       7   13    1         0.8193060553E-02      0.9152134871E-02
          0                 6           1             7   13     1      -0.5687879793E-05       7   13    1        -0.3349111171E-03      0.3406156550E-03

    ------------------------------------------------
       NWT REQUIRED            6 OUTER ITERATIONS 
       AND A TOTAL OF         11 INNER ITERATIONS.
    ------------------------------------------------

 NO OUTPUT CONTROL FOR STRESS PERIOD   19   TIME STEP   15
 
 SOLVING FOR HEAD 
                                                   Max.-Head-Change                         Max.-Flux-Residual
  Residual-Control   Outer-Iter.   Inner-Iter.     Column Row Layer    Maximum-Head-Change  Column Row Layer    Maximum-Flux-Residual          L2-NORM 
          0                 1           2             4   13     1       0.6193008951E-02       4   13    1         0.3572253142E+00      0.8747353887E+00
          0                 2           2             7   13     1      -0.2520357497E-02       7   13    1        -0.1398672007E+00      0.1621487932E+00
          0                 3           2             7   13     1       0.1715796037E-03       7   13    1         0.9787965190E-02      0.1128830781E-01
          0                 4           1             7   13     1      -0.6823596756E-05       7   13    1        -0.4001165196E-03      0.4577253887E-03

    ------------------------------------------------
       NWT REQUIRED            4 OUTER ITERATIONS 
       AND A TOTAL OF          7 INNER ITERATIONS.
    ------------------------------------------------

 NO OUTPUT CONTROL FOR STRESS PERIOD   19   TIME STEP   16
 
 SOLVING FOR HEAD 
                                                   Max.-Head-Change                         Max.-Flux-Residual
  Residual-Control   Outer-Iter.   Inner-Iter.     Column Row Layer    Maximum-Head-Change  Column Row Layer    Maximum-Flux-Residual          L2-NORM 
          0                 1           2             4   13     1       0.5627513201E-02       4   13    1         0.3244770708E+00      0.8239880023E+00
          0                 2           2             4    7     1      -0.7007782366E-01       5    6    1        -0.3771060857E+01      0.9275460447E+01
          0                 3           2             4    7     1       0.5297798606E-01       5    6    1         0.2925296279E+01      0.7184338190E+01
          0                 4           2             4    7     1      -0.2108154914E-02       4    6    1        -0.1196394986E+00      0.3180255759E+00
          0                 5           2             7   13     1       0.1425373416E-03       7   13    1         0.8166029541E-02      0.9121768881E-02
          0                 6           1             7   13     1      -0.5668917234E-05       7   13    1        -0.3337937301E-03      0.3390711003E-03

    ------------------------------------------------
       NWT REQUIRED            6 OUTER ITERATIONS 
       AND A TOTAL OF         11 INNER ITERATIONS.
    ------------------------------------------------

 NO OUTPUT CONTROL FOR STRESS PERIOD   19   TIME STEP   17
 
 SOLVING FOR HEAD 
                                                   Max.-Head-Change                         Max.-Flux-Residual
  Residual-Control   Outer-Iter.   Inner-Iter.     Column Row Layer    Maximum-Head-Change  Column Row Layer    Maximum-Flux-Residual          L2-NORM 
          0                 1           2             4   13     1       0.6423937114E-02       4   13    1         0.3704955808E+00      0.9091906551E+00
          0                 2           2             7   13     1      -0.2531678863E-02       7   13    1        -0.1404931764E+00      0.1644129488E+00
          0                 3           2             7   13     1       0.1723569691E-03       7   13    1         0.9832160418E-02      0.1144298374E-01
          0                 4           1             7   13     1      -0.6861161741E-05       7   13    1        -0.4023036172E-03      0.4640177914E-03

    ------------------------------------------------
       NWT REQUIRED            4 OUTER ITERATIONS 
       AND A TOTAL OF          7 INNER ITERATIONS.
    ------------------------------------------------

 NO OUTPUT CONTROL FOR STRESS PERIOD   19   TIME STEP   18
 
 SOLVING FOR HEAD 
                                                   Max.-Head-Change                         Max.-Flux-Residual
  Residual-Control   Outer-Iter.   Inner-Iter.     Column Row Layer    Maximum-Head-Change  Column Row Layer    Maximum-Flux-Residual          L2-NORM 
          0                 1           2             4   13     1       0.5836733110E-02       4   13    1         0.3364933876E+00      0.8563553781E+00
          0                 2           2             4    7     1      -0.7009297223E-01       5    6    1        -0.3772291195E+01      0.9278372335E+01
          0                 3           2             4    7     1       0.5297157645E-01       5    6    1         0.2925359233E+01      0.7184366384E+01
          0                 4           2             4    7     1      -0.2107806440E-02       4    6    1        -0.1196425525E+00      0.3178600420E+00
          0                 5           2             7   13     1       0.1420837126E-03       7   13    1         0.8140054152E-02      0.9099059050E-02
          0                 6           1             7   13     1      -0.5651325870E-05       7   13    1        -0.3327447730E-03      0.3380865567E-03

    ------------------------------------------------
       NWT REQUIRED            6 OUTER ITERATIONS 
       AND A TOTAL OF         11 INNER ITERATIONS.
    ------------------------------------------------

 NO OUTPUT CONTROL FOR STRESS PERIOD   19   TIME STEP   19
 
 SOLVING FOR HEAD 
                                                   Max.-Head-Change                         Max.-Flux-Residual
  Residual-Control   Outer-Iter.   Inner-Iter.     Column Row Layer    Maximum-Head-Change  Column Row Layer    Maximum-Flux-Residual          L2-NORM 
          0                 1           2             4   13     1       0.6614462943E-02       4   13    1         0.3814319163E+00      0.9403935287E+00
          0                 2           2             7   13     1      -0.2542456836E-02       7   13    1        -0.1410890721E+00      0.1665272712E+00
          0                 3           2             7   13     1       0.1730842040E-03       7   13    1         0.9873501370E-02      0.1158722571E-01
          0                 4           1             7   13     1      -0.6883217656E-05       7   13    1        -0.4035905924E-03      0.4699532546E-03

    ------------------------------------------------
       NWT REQUIRED            4 OUTER ITERATIONS 
       AND A TOTAL OF          7 INNER ITERATIONS.
    ------------------------------------------------

 NO OUTPUT CONTROL FOR STRESS PERIOD   19   TIME STEP   20
 
 SOLVING FOR HEAD 
                                                   Max.-Head-Change                         Max.-Flux-Residual
  Residual-Control   Outer-Iter.   Inner-Iter.     Column Row Layer    Maximum-Head-Change  Column Row Layer    Maximum-Flux-Residual          L2-NORM 
          0                 1           2             4   13     1       0.6009455505E-02       4   13    1         0.3464019284E+00      0.8857972022E+00
          0                 2           2             4    7     1      -0.7014585404E-01       5    6    1        -0.3773416897E+01      0.9281102143E+01
          0                 3           2             4    7     1       0.5300885552E-01       5    6    1         0.2925438422E+01      0.7185395933E+01
          0                 4           2             4    7     1      -0.2109289959E-02       4    8    1        -0.1196336851E+00      0.3177543587E+00
          0                 5           2             7   13     1       0.1416503103E-03       7   13    1         0.8114379147E-02      0.9074840893E-02
          0                 6           1             7   13     1      -0.5633589443E-05       7   13    1        -0.3316678499E-03      0.3369034828E-03

    ------------------------------------------------
       NWT REQUIRED            6 OUTER ITERATIONS 
       AND A TOTAL OF         11 INNER ITERATIONS.
    ------------------------------------------------

 NO OUTPUT CONTROL FOR STRESS PERIOD   19   TIME STEP   21
 
 SOLVING FOR HEAD 
                                                   Max.-Head-Change                         Max.-Flux-Residual
  Residual-Control   Outer-Iter.   Inner-Iter.     Column Row Layer    Maximum-Head-Change  Column Row Layer    Maximum-Flux-Residual          L2-NORM 
          0                 1           2             4   13     1       0.6771892599E-02       4   13    1         0.3904577948E+00      0.9687661234E+00
          0                 2           2             7   13     1      -0.2552725107E-02       7   13    1        -0.1416567330E+00      0.1685023929E+00
          0                 3           2             7   13     1       0.1737817154E-03       7   13    1         0.9913152151E-02      0.1172210649E-01
          0                 4           1             7   13     1      -0.6911570821E-05       7   13    1        -0.4052485663E-03      0.4750566539E-03

    ------------------------------------------------
       NWT REQUIRED            4 OUTER ITERATIONS 
       AND A TOTAL OF          7 INNER ITERATIONS.
    ------------------------------------------------

 NO OUTPUT CONTROL FOR STRESS PERIOD   19   TIME STEP   22
 
 SOLVING FOR HEAD 
                                                   Max.-Head-Change                         Max.-Flux-Residual
  Residual-Control   Outer-Iter.   Inner-Iter.     Column Row Layer    Maximum-Head-Change  Column Row Layer    Maximum-Flux-Residual          L2-NORM 
          0                 1           2             4   13     1       0.6152522577E-02       4   13    1         0.3545992788E+00      0.9126707291E+00
          0                 2           2             4    7     1      -0.7016040044E-01       5    6    1        -0.3774446786E+01      0.9283598470E+01
          0                 3           2             4    7     1       0.5300985846E-01       5    6    1         0.2925510861E+01      0.7185602017E+01
          0                 4           2             4    7     1      -0.2109329866E-02       4    8    1        -0.1196363806E+00      0.3176403125E+00
          0                 5           2             7   13     1       0.1412342693E-03       7   13    1         0.8090555393E-02      0.9053752045E-02
          0                 6           1             7   13     1      -0.5617328288E-05       7   13    1        -0.3307115473E-03      0.3359998426E-03

    ------------------------------------------------
       NWT REQUIRED            6 OUTER ITERATIONS 
       AND A TOTAL OF         11 INNER ITERATIONS.
    ------------------------------------------------

 NO OUTPUT CONTROL FOR STRESS PERIOD   19   TIME STEP   23
 
 SOLVING FOR HEAD 
                                                   Max.-Head-Change                         Max.-Flux-Residual
  Residual-Control   Outer-Iter.   Inner-Iter.     Column Row Layer    Maximum-Head-Change  Column Row Layer    Maximum-Flux-Residual          L2-NORM 
          0                 1           2             4   13     1       0.6902587783E-02       4   13    1         0.3979415424E+00      0.9946544018E+00
          0                 2           2             7   13     1      -0.2562502880E-02       7   13    1        -0.1421972437E+00      0.1703495500E+00
          0                 3           2             7   13     1       0.1744467458E-03       7   13    1         0.9950952624E-02      0.1184854293E-01
          0                 4           1             7   13     1      -0.6937384271E-05       7   13    1        -0.4067573059E-03      0.4801670313E-03

    ------------------------------------------------
       NWT REQUIRED            4 OUTER ITERATIONS 
       AND A TOTAL OF          7 INNER ITERATIONS.
    ------------------------------------------------

 NO OUTPUT CONTROL FOR STRESS PERIOD   19   TIME STEP   24
 
 SOLVING FOR HEAD 
                                                   Max.-Head-Change                         Max.-Flux-Residual
  Residual-Control   Outer-Iter.   Inner-Iter.     Column Row Layer    Maximum-Head-Change  Column Row Layer    Maximum-Flux-Residual          L2-NORM 
          0                 1           2             4   13     1       0.6271299688E-02       4   13    1         0.3613960683E+00      0.9372885001E+00
          0                 2           2             4    7     1      -0.7017493236E-01       5    6    1        -0.3775394994E+01      0.9285961869E+01
          0                 3           2             4    7     1       0.5301086063E-01       5    6    1         0.2925577543E+01      0.7185774687E+01
          0                 4           2             4    7     1      -0.2109369744E-02       4    8    1        -0.1196389274E+00      0.3175285053E+00
          0                 5           2             7   13     1       0.1408349472E-03       7   13    1         0.8067689550E-02      0.9033154988E-02
          0                 6           1             7   13     1      -0.5601823997E-05       7   13    1        -0.3298020501E-03      0.3350759366E-03

    ------------------------------------------------
       NWT REQUIRED            6 OUTER ITERATIONS 
       AND A TOTAL OF         11 INNER ITERATIONS.
    ------------------------------------------------

 NO OUTPUT CONTROL FOR STRESS PERIOD   19   TIME STEP   25
 
 SOLVING FOR HEAD 
                                                   Max.-Head-Change                         Max.-Flux-Residual
  Residual-Control   Outer-Iter.   Inner-Iter.     Column Row Layer    Maximum-Head-Change  Column Row Layer    Maximum-Flux-Residual          L2-NORM 
          0                 1           2             4   13     1       0.7011139487E-02       4   13    1         0.4041490478E+00      0.1018340956E+01
          0                 2           2             7   13     1      -0.2571824031E-02       7   13    1        -0.1427124566E+00      0.1720778269E+00
          0                 3           2             7   13     1       0.1750874398E-03       7   13    1         0.9987363836E-02      0.1196813326E-01
          0                 4           1             7   13     1      -0.6964550701E-05       7   13    1        -0.4083443168E-03      0.4854524045E-03

    ------------------------------------------------
       NWT REQUIRED            4 OUTER ITERATIONS 
       AND A TOTAL OF          7 INNER ITERATIONS.
    ------------------------------------------------

 NO OUTPUT CONTROL FOR STRESS PERIOD   19   TIME STEP   26
 
 SOLVING FOR HEAD 
                                                   Max.-Head-Change                         Max.-Flux-Residual
  Residual-Control   Outer-Iter.   Inner-Iter.     Column Row Layer    Maximum-Head-Change  Column Row Layer    Maximum-Flux-Residual          L2-NORM 
          0                 1           2             4   13     1       0.6370309090E-02       4   13    1         0.3670542159E+00      0.9598847670E+00
          0                 2           2             4    7     1      -0.7018932860E-01       5    6    1        -0.3776267380E+01      0.9288177612E+01
          0                 3           2             4    7     1       0.5301185363E-01       5    6    1         0.2925638884E+01      0.7185936194E+01
          0                 4           2             4    7     1      -0.2109409256E-02       4    8    1        -0.1196413365E+00      0.3174209860E+00
          0                 5           2             7   13     1       0.1404530519E-03       7   13    1         0.8045815454E-02      0.9013610206E-02
          0                 6           1             7   13     1      -0.5586107636E-05       7   13    1        -0.3288763294E-03      0.3341628654E-03

    ------------------------------------------------
       NWT REQUIRED            6 OUTER ITERATIONS 
       AND A TOTAL OF         11 INNER ITERATIONS.
    ------------------------------------------------

 NO OUTPUT CONTROL FOR STRESS PERIOD   19   TIME STEP   27
 
 SOLVING FOR HEAD 
                                                   Max.-Head-Change                         Max.-Flux-Residual
  Residual-Control   Outer-Iter.   Inner-Iter.     Column Row Layer    Maximum-Head-Change  Column Row Layer    Maximum-Flux-Residual          L2-NORM 
          0                 1           2             4   13     1       0.7101750253E-02       4   13    1         0.4093236359E+00      0.1040094614E+01
          0                 2           2             7   13     1      -0.2580719510E-02       7   13    1        -0.1432041137E+00      0.1736971480E+00
          0                 3           2             7   13     1       0.1756894248E-03       7   13    1         0.1002157147E-01      0.1207898011E-01
          0                 4           1             7   13     1      -0.6987443363E-05       7   13    1        -0.4096836328E-03      0.4891795677E-03

    ------------------------------------------------
       NWT REQUIRED            4 OUTER ITERATIONS 
       AND A TOTAL OF          7 INNER ITERATIONS.
    ------------------------------------------------

 NO OUTPUT CONTROL FOR STRESS PERIOD   19   TIME STEP   28
 
 SOLVING FOR HEAD 
                                                   Max.-Head-Change                         Max.-Flux-Residual
  Residual-Control   Outer-Iter.   Inner-Iter.     Column Row Layer    Maximum-Head-Change  Column Row Layer    Maximum-Flux-Residual          L2-NORM 
          0                 1           2             5    6     1       0.5957230933E-02       4   13    1         0.3423032782E+00      0.9476265575E+00
          0                 2           2             4    7     1      -0.7020358777E-01       5    6    1        -0.3777072283E+01      0.9289601631E+01
          0                 3           2             4    7     1       0.4909641273E-01       5    6    1         0.2709596178E+01      0.6655470279E+01
          0                 4           2             4    7     1      -0.1953607634E-02       4    8    1        -0.1108050380E+00      0.2735209811E+00
          0                 5           1             4    7     1       0.2408880411E-04       4    7    1         0.1404171861E-02      0.3685709633E-02

    ------------------------------------------------
       NWT REQUIRED            5 OUTER ITERATIONS 
       AND A TOTAL OF          9 INNER ITERATIONS.
    ------------------------------------------------

 NO OUTPUT CONTROL FOR STRESS PERIOD   19   TIME STEP   29
 
 SOLVING FOR HEAD 
                                                   Max.-Head-Change                         Max.-Flux-Residual
  Residual-Control   Outer-Iter.   Inner-Iter.     Column Row Layer    Maximum-Head-Change  Column Row Layer    Maximum-Flux-Residual          L2-NORM 
          0                 1           2             5    6     1       0.6423687379E-02       4   13    1         0.3473786787E+00      0.9935298939E+00
          0                 2           2             7   13     1      -0.2300403272E-02       7   13    1        -0.1276605331E+00      0.1590462773E+00
          0                 3           2             7   13     1       0.1566057470E-03       7   13    1         0.8933544847E-02      0.1107065933E-01
          0                 4           1             7   13     1      -0.6227964774E-05       7   13    1        -0.3651508860E-03      0.4491148976E-03

    ------------------------------------------------
       NWT REQUIRED            4 OUTER ITERATIONS 
       AND A TOTAL OF          7 INNER ITERATIONS.
    ------------------------------------------------

 NO OUTPUT CONTROL FOR STRESS PERIOD   19   TIME STEP   30



 STREAM LISTING     PERIOD     19   STEP       30

 LAYER ROW COL. STREAM  RCH.  FLOW INTO     FLOW TO   FLOW OUT OF   OVRLND.     DIRECT     STREAM       STREAM     STREAM     STREAM   STREAMBED  STREAMBED
                SEG.NO.  NO.  STRM. RCH.    AQUIFER    STRM. RCH.    RUNOFF     PRECIP       ET          HEAD       DEPTH      WIDTH   CONDCTNC.   GRADIENT

   1    1    1     1     1    4.0501E+01  3.0566E-01   4.0195E+01  0.000E+00  0.000E+00  0.000E+00  1.09438E+03  1.335E+00  1.567E+01  7.051E-02  1.445E+00
   1    2    2     1     2    4.0195E+01  4.7341E-01   3.9722E+01  0.000E+00  0.000E+00  0.000E+00  1.08939E+03  1.332E+00  1.561E+01  1.093E-01  1.444E+00
   1    3    3     1     3    3.9722E+01  4.0378E-01   3.9318E+01  0.000E+00  0.000E+00  0.000E+00  1.08375E+03  1.329E+00  1.555E+01  9.328E-02  1.443E+00
   1    3    4     1     4    3.9318E+01  3.7185E-01   3.8946E+01  0.000E+00  0.000E+00  0.000E+00  1.07873E+03  1.326E+00  1.549E+01  8.596E-02  1.442E+00
   1    4    5     2     1    3.6946E+01  3.5272E-01   3.6593E+01  0.000E+00  0.000E+00  0.000E+00  1.07346E+03  1.522E+00  1.200E+01  7.800E-02  1.507E+00
   1    5    6     2     2    3.6593E+01  2.7086E-01   3.6322E+01  0.000E+00  0.000E+00  0.000E+00  1.06802E+03  1.514E+00  1.200E+01  6.000E-02  1.505E+00
   1    6    6     2     3    3.6322E+01  2.7045E-01   3.6052E+01  0.000E+00  0.000E+00  0.000E+00  1.06330E+03  1.508E+00  1.200E+01  6.000E-02  1.503E+00
   1    7    6     2     4    3.6052E+01  2.7005E-01   3.5782E+01  0.000E+00  0.000E+00  0.000E+00  1.05858E+03  1.501E+00  1.200E+01  6.000E-02  1.500E+00
   1    8    6     2     5    3.5782E+01  2.6964E-01   3.5512E+01  0.000E+00  0.000E+00  0.000E+00  1.05385E+03  1.494E+00  1.200E+01  6.000E-02  1.498E+00
   1    3    5     3     1    2.0000E+00  2.8252E-01   1.7175E+00  0.000E+00  0.000E+00  0.000E+00  1.07555E+03  1.909E+00  9.636E+00  7.227E-02  1.955E+00
   1    3    6     3     2    1.7175E+00  2.4905E-01   1.4684E+00  0.000E+00  0.000E+00  0.000E+00  1.07264E+03  1.727E+00  8.909E+00  6.682E-02  1.864E+00
   1    3    7     3     3    1.4684E+00  1.9718E-01   1.2712E+00  0.000E+00  0.000E+00  0.000E+00  1.06987E+03  1.555E+00  8.218E+00  5.547E-02  1.777E+00
   1    4    8     3     4    1.2712E+00  2.2567E-01   1.0456E+00  0.000E+00  0.000E+00  0.000E+00  1.06682E+03  1.364E+00  7.455E+00  6.709E-02  1.682E+00
   1    5    8     3     5    1.0456E+00  1.5790E-01   8.8768E-01  0.000E+00  0.000E+00  0.000E+00  1.06362E+03  1.164E+00  6.655E+00  4.991E-02  1.582E+00
   1    6    8     3     6    8.8768E-01  5.5980E-02   8.3170E-01  0.000E+00  0.000E+00  0.000E+00  1.06158E+03  1.036E+00  6.145E+00  1.844E-02  1.518E+00
   1    5   10     4     1    1.0000E+01  9.0919E-02   9.9091E+00  0.000E+00  0.000E+00  0.000E+00  1.07836E+03  6.368E-01  1.000E+01  2.500E-02  1.212E+00
   1    5    9     4     2    9.9091E+00  1.8158E-01   9.7275E+00  0.000E+00  0.000E+00  0.000E+00  1.07154E+03  6.315E-01  1.000E+01  5.000E-02  1.211E+00
   1    6    8     4     3    9.7275E+00  1.2689E-01   9.6006E+00  0.000E+00  0.000E+00  0.000E+00  1.06381E+03  6.256E-01  1.000E+01  3.500E-02  1.209E+00
   1    6    8     5     1    1.0432E+01  2.2686E-01   1.0205E+01  0.000E+00  0.000E+00  0.000E+00  1.05868E+03  6.790E-01  1.542E+01  6.166E-02  1.226E+00
   1    7    7     5     2    1.0205E+01  2.7894E-01   9.9265E+00  0.000E+00  0.000E+00  0.000E+00  1.05417E+03  6.732E-01  1.519E+01  7.594E-02  1.224E+00
   1    8    7     5     3    9.9265E+00  1.9221E-01   9.7343E+00  0.000E+00  0.000E+00  0.000E+00  1.04992E+03  6.676E-01  1.497E+01  5.241E-02  1.223E+00
   1    8    6     5     4    9.7343E+00  1.3577E-01   9.5985E+00  0.000E+00  0.000E+00  0.000E+00  1.04691E+03  6.637E-01  1.482E+01  3.706E-02  1.221E+00
   1    9    6     6     1    4.5111E+01  2.8420E-01   4.4827E+01  0.000E+00  0.000E+00  0.000E+00  1.04446E+03  1.737E+00  1.200E+01  6.000E-02  1.579E+00
   1   10    7     6     2    4.4827E+01  2.8380E-01   4.4543E+01  0.000E+00  0.000E+00  0.000E+00  1.03991E+03  1.730E+00  1.200E+01  6.000E-02  1.577E+00
   1   11    7     6     3    4.4543E+01  2.8341E-01   4.4259E+01  0.000E+00  0.000E+00  0.000E+00  1.03536E+03  1.723E+00  1.200E+01  6.000E-02  1.574E+00
   1   12    7     6     4    4.4259E+01  2.8301E-01   4.3976E+01  0.000E+00  0.000E+00  0.000E+00  1.03081E+03  1.717E+00  1.200E+01  6.000E-02  1.572E+00
   1   13    7     6     5    4.3976E+01  1.2666E-02   4.3964E+01  0.000E+00  0.000E+00  0.000E+00  1.02762E+03  1.713E+00  1.200E+01  2.400E-02  1.759E-01
   1   14    9     7     1    1.5000E+02  1.3369E+00   1.4866E+02  0.000E+00  0.000E+00  0.000E+00  1.03987E+03  2.288E+00  5.529E+01  5.593E-01  7.968E-01
   1   13    8     7     2    1.4866E+02  1.8278E+00   1.4684E+02  0.000E+00  0.000E+00  0.000E+00  1.03478E+03  2.279E+00  5.526E+01  6.148E-01  9.910E-01
   1   13    7     7     3    1.4684E+02  1.4493E+00   1.4539E+02  0.000E+00  0.000E+00  0.000E+00  1.02969E+03  2.271E+00  5.522E+01  5.585E-01  8.650E-01
   1   13    6     8     1    1.8935E+02  9.7376E-01   1.8838E+02  0.000E+00  0.000E+00  0.000E+00  1.02495E+03  3.071E+00  4.453E+01  4.538E-01  7.153E-01
   1   13    5     8     2    1.8838E+02  1.9340E-01   1.8818E+02  0.000E+00  0.000E+00  0.000E+00  1.01869E+03  3.067E+00  4.448E+01  4.532E-01  1.422E-01
   1   13    4     8     3    1.8818E+02 -2.2188E+00   1.9040E+02  0.000E+00  0.000E+00  0.000E+00  1.01245E+03  3.074E+00  4.457E+01  4.542E+00 -1.628E-01
   1   13    3     8     4    1.9040E+02 -3.4188E+00   1.9382E+02  0.000E+00  0.000E+00  0.000E+00  1.00622E+03  3.091E+00  4.482E+01  4.567E+00 -2.495E-01
   1   13    2     8     5    1.9382E+02 -2.2871E+00   1.9611E+02  0.000E+00  0.000E+00  0.000E+00  9.99983E+02  3.108E+00  4.506E+01  4.592E+00 -1.660E-01
   1   13    1     8     6    1.9611E+02 -1.8447E+00   1.9795E+02  0.000E+00  0.000E+00  0.000E+00  9.94995E+02  3.120E+00  4.524E+01  2.766E+00 -2.223E-01
   1    8    6     9     1    0.0000E+00  0.0000E+00   0.0000E+00  0.000E+00  0.000E+00  0.000E+00  1.07875E+03  0.000E+00  4.000E+00  0.000E+00  1.000E+00
   1    8    5     9     2    0.0000E+00  0.0000E+00   0.0000E+00  0.000E+00  0.000E+00  0.000E+00  1.07825E+03  0.000E+00  4.000E+00  0.000E+00  1.000E+00





UNSATURATED ZONE PACKAGE VOLUMETRIC BUDGET FOR  TIME STEP    30 STRESS PERIOD   19
  ------------------------------------------------------------------------------



     CUMULATIVE VOLUMES      L**3       RATES FOR THIS TIME STEP      L**3/T
     ------------------                 ------------------------

           IN:                                      IN:
           ---                                      ---
        INFILTRATION =   620258940.2034          INFILTRATION =           0.8475

          OUT:                                     OUT:
          ----                                     ----
              UZF ET =   532628963.9302                UZF ET =          23.5106
        UZF RECHARGE =       73224.0000          UZF RECHARGE =       0.0000E+00

            IN - OUT =    87556752.2732              IN - OUT =         -22.6631

          STORAGE:                                 STORAGE:
          --------                                 --------
      STORAGE CHANGE =    87557240.4606        STORAGE CHANGE =         -22.6630

 PERCENT DISCREPANCY IS DIFFERENCE BETWEEN IN-OUT MINUS CHANGE IN STORAGE
 DIVIDED BY THE AVERAGE OF IN AND OUT TIMES 100

 PERCENT DISCREPANCY =          -0.00     PERCENT DISCREPANCY =          -0.00






1
  VOLUMETRIC BUDGET FOR AGRICULTURAL FIELDS AT  END OF TIME STEP   30, STRESS PERIOD  19
  ------------------------------------------------------------------------------

     CUMULATIVE VOLUMES      L**3       RATES FOR THIS TIME STEP      L**3/T
     ------------------                 ------------------------

           IN:                                      IN:
           ---                                      ---
               AG WELLS  =   160476768.0000                 AG WELLS  =           0.0000
      DIVERSION SEGMENTS =   419582336.0000        DIVERSION SEGMENTS =           0.0000
           GW IRRIGATION =           0.0000             GW IRRIGATION =           0.0000
           SW IRRIGATION =           0.0000             SW IRRIGATION =           0.0000
        SYSTEM LOSSES GW =           0.0000          SYSTEM LOSSES GW =           0.0000
        SYSTEM LOSSES SW =           0.0000          SYSTEM LOSSES SW =           0.0000

                TOTAL IN =   580059136.0000                  TOTAL IN =           0.0000

          OUT:                                     OUT:
          ----                                     ----
               AG WELLS  =           0.0000                 AG WELLS  =           0.0000
      DIVERSION SEGMENTS =           0.0000        DIVERSION SEGMENTS =           0.0000
           GW IRRIGATION =   160476768.0000             GW IRRIGATION =           0.0000
           SW IRRIGATION =   419590688.0000             SW IRRIGATION =           0.0000
        SYSTEM LOSSES GW =           0.0000          SYSTEM LOSSES GW =           0.0000
        SYSTEM LOSSES SW =           0.0000          SYSTEM LOSSES SW =           0.0000

               TOTAL OUT =   580067456.0000                 TOTAL OUT =           0.0000

                IN - OUT =       -8320.0000                  IN - OUT =           0.0000

     PERCENT DISCREPANCY =          -0.00         PERCENT DISCREPANCY =           0.00



1
  VOLUMETRIC BUDGET FOR ENTIRE MODEL AT END OF TIME STEP   30, STRESS PERIOD  19
  ------------------------------------------------------------------------------

     CUMULATIVE VOLUMES      L**3       RATES FOR THIS TIME STEP      L**3/T
     ------------------                 ------------------------

           IN:                                      IN:
           ---                                      ---
             STORAGE     =   285306400.0000               STORAGE     =           1.0911
       CONSTANT HEAD     =           0.0000         CONSTANT HEAD     =           0.0000
     HEAD DEP BOUNDS     =    13552433.0000       HEAD DEP BOUNDS     =           0.2858
      STREAM LEAKAGE     =   571385472.0000        STREAM LEAKAGE     =          12.3180
        UZF RECHARGE     =       73223.9531          UZF RECHARGE     =           0.0000
               GW ET     =           0.0000                 GW ET     =           0.0000
     SURFACE LEAKAGE     =           0.0000       SURFACE LEAKAGE     =           0.0000
           AG WELLS      =           0.0000             AG WELLS      =           0.0000

                TOTAL IN =   870317568.0000                  TOTAL IN =          13.6950

          OUT:                                     OUT:
          ----                                     ----
             STORAGE     =   183338736.0000               STORAGE     =           3.6345
       CONSTANT HEAD     =           0.0000         CONSTANT HEAD     =           0.0000
     HEAD DEP BOUNDS     =    13817239.0000       HEAD DEP BOUNDS     =           0.2912
      STREAM LEAKAGE     =   510552032.0000        STREAM LEAKAGE     =           9.7693
        UZF RECHARGE     =           0.0000          UZF RECHARGE     =           0.0000
               GW ET     =     2141481.7500                 GW ET     =           0.0000
     SURFACE LEAKAGE     =           0.0000       SURFACE LEAKAGE     =           0.0000
           AG WELLS      =   160476768.0000             AG WELLS      =           0.0000

               TOTAL OUT =   870326272.0000                 TOTAL OUT =          13.6950

                IN - OUT =       -8704.0000                  IN - OUT =       1.6212E-05

     PERCENT DISCREPANCY =          -0.00         PERCENT DISCREPANCY =           0.00






         TIME SUMMARY AT END OF TIME STEP   30 IN STRESS PERIOD   19
                    SECONDS     MINUTES      HOURS       DAYS        YEARS
                    -----------------------------------------------------------
   TIME STEP LENGTH  87667.      1461.1      24.352      1.0147     2.77799E-03
 STRESS PERIOD TIME 2.63000E+06  43833.      730.56      30.440     8.33397E-02
         TOTAL TIME 4.74265E+07 7.90442E+05  13174.      548.92      1.5029    
1
1
                            STRESS PERIOD NO.   20, LENGTH =   2630000.    
                            -----------------------------------------------

                              NUMBER OF TIME STEPS =    30

                               MULTIPLIER FOR DELT =     1.000

                            INITIAL TIME STEP SIZE =   87666.66    

 REUSING NON-PARAMETER GHB CELLS FROM LAST STRESS PERIOD

      2 GHB CELLS

 REUSING STREAM SEGMENT DATA FROM LAST STRESS PERIOD



            AREAL INFILTRATION RATE
 READING ON UNIT   19 WITH FORMAT: (FREE)              

            1           2           3           4           5           6           7           8           9          10
 ........................................................................................................................
   1   1.0000E-10  2.0000E-10   0.000       0.000       0.000       0.000       0.000       0.000       0.000       0.000    
   2   2.0000E-10  1.0000E-10  2.0000E-10   0.000       0.000      8.0000E-10  8.0000E-10  5.0000E-10   0.000       0.000    
   3    0.000      5.0000E-10  1.0000E-10  1.0000E-10  8.0000E-10  8.0000E-10  5.0000E-10  5.0000E-10   0.000       0.000    
   4   8.0000E-10  5.0000E-10  1.0000E-10  1.0000E-10  1.0000E-10  1.0000E-10  1.0000E-10  1.0000E-10  2.0000E-10   0.000    
   5   8.0000E-10  5.0000E-10  1.0000E-10  1.0000E-10  1.0000E-10  1.0000E-10  1.0000E-10  1.0000E-10  1.0000E-10  1.0000E-10
   6   8.0000E-10  5.0000E-10  5.0000E-10  2.0000E-10  2.0000E-10  1.0000E-10  1.0000E-10  1.0000E-10  1.0000E-10  5.0000E-10
   7   8.0000E-10  5.0000E-10  5.0000E-10  2.0000E-10  2.0000E-10  1.0000E-10  1.0000E-10  2.0000E-10  2.0000E-10   0.000    
   8    0.000      5.0000E-10  5.0000E-10  2.0000E-10  2.0000E-10  1.0000E-10  1.0000E-10  2.0000E-10  5.0000E-10   0.000    
   9    0.000      5.0000E-10  5.0000E-10  2.0000E-10  2.0000E-10  1.0000E-10  1.0000E-10  2.0000E-10  5.0000E-10   0.000    
  10    0.000      5.0000E-10  5.0000E-10  2.0000E-10  2.0000E-10  1.0000E-10  1.0000E-10  2.0000E-10  5.0000E-10  8.0000E-10
  11    0.000      1.0000E-10  1.0000E-10  1.0000E-10  1.0000E-10  1.0000E-10  1.0000E-10  2.0000E-10  5.0000E-10   0.000    
  12   1.0000E-10  1.0000E-10  1.0000E-10  1.0000E-10  1.0000E-10  1.0000E-10  1.0000E-10  1.0000E-10  2.0000E-10   0.000    
  13   1.0000E-10  1.0000E-10  2.0000E-10  2.0000E-10  2.0000E-10  2.0000E-10  2.0000E-10  1.0000E-10  1.0000E-10   0.000    
  14    0.000      2.0000E-10  5.0000E-10  5.0000E-10  5.0000E-10  5.0000E-10  5.0000E-10  2.0000E-10  1.0000E-10   0.000    
  15    0.000       0.000      8.0000E-10  8.0000E-10  8.0000E-10  8.0000E-10   0.000       0.000       0.000       0.000    

                  ET RATE =  4.000000E-07

 USING ET EXTINCTION DEPTH FROM PREVIOUS STRESS PERIOD. CURRENT PERIOD IS:      20

 USING EXTINCTION WATER CONTENT FROM PREVIOUS STRESS PERIOD. CURRENT PERIOD IS:      20

 USING AIR ENTRY PRESSURE FROM PREVIOUS STRESS PERIOD. CURRENT PERIOD IS:      20

 USING ROOT PRESSURE HEAD FROM PREVIOUS STRESS PERIOD. CURRENT PERIOD IS:      20

 USING ROOT ACTIVITY FROM PREVIOUS STRESS PERIOD. CURRENT PERIOD IS:      20

 PROCESSING AG STRESS PERIOD DATA

 READING AG STRESS PERIOD DATA

 READING IRRIGATION SEGMENT

 READING IRRIGATION WELL

 READING SUPPLEMENTAL WELL

 END PROCESSING AG STRESS PERIOD DATA OPTIONS
 
 SOLVING FOR HEAD 
                                                   Max.-Head-Change                         Max.-Flux-Residual
  Residual-Control   Outer-Iter.   Inner-Iter.     Column Row Layer    Maximum-Head-Change  Column Row Layer    Maximum-Flux-Residual          L2-NORM 
          0                 1           2             5    6     1       0.6198153654E-02       5    6    1         0.3338592336E+00      0.9420029719E+00
          0                 2           2             4    7     1      -0.2625979570E+00       5    6    1        -0.1410468549E+02      0.3456899419E+02
          0                 3           2             4    7     1       0.1788020069E-01       5    6    1         0.9871359079E+00      0.2419718105E+01
          0                 4           2             4    7     1      -0.7114719677E-03       4    6    1        -0.4035981265E-01      0.9916791240E-01
          0                 5           1             4    7     1       0.8772754390E-05       4    7    1         0.5112765682E-03      0.1299089213E-02

    ------------------------------------------------
       NWT REQUIRED            5 OUTER ITERATIONS 
       AND A TOTAL OF          9 INNER ITERATIONS.
    ------------------------------------------------

 OUTPUT CONTROL FOR STRESS PERIOD   20   TIME STEP    1
    PRINT BUDGET
    SAVE BUDGET
    SAVE BUDGET
    SAVE HEAD FOR ALL LAYERS
 UBDSV1 SAVING "         STORAGE" ON UNIT 102 AT TIME STEP  1, STRESS PERIOD  20
 UBDSV2 SAVING "   CONSTANT HEAD" ON UNIT 102 AT TIME STEP  1, STRESS PERIOD  20
 UBDSV1 SAVING "FLOW RIGHT FACE " ON UNIT 102 AT TIME STEP  1, STRESS PERIOD  20
 UBDSV1 SAVING "FLOW FRONT FACE " ON UNIT 102 AT TIME STEP  1, STRESS PERIOD  20

  HEAD DEP BOUNDS   PERIOD   20   STEP     1
 BOUNDARY      1   LAYER   1   ROW    13   COL     1   RATE   -0.290979    
 BOUNDARY      2   LAYER   1   ROW    14   COL     9   RATE    0.285832    



 STREAM LISTING     PERIOD     20   STEP        1

 LAYER ROW COL. STREAM  RCH.  FLOW INTO     FLOW TO   FLOW OUT OF   OVRLND.     DIRECT     STREAM       STREAM     STREAM     STREAM   STREAMBED  STREAMBED
                SEG.NO.  NO.  STRM. RCH.    AQUIFER    STRM. RCH.    RUNOFF     PRECIP       ET          HEAD       DEPTH      WIDTH   CONDCTNC.   GRADIENT

   1    1    1     1     1    4.0501E+01  3.0566E-01   4.0195E+01  0.000E+00  0.000E+00  0.000E+00  1.09438E+03  1.335E+00  1.567E+01  7.051E-02  1.445E+00
   1    2    2     1     2    4.0195E+01  4.7341E-01   3.9722E+01  0.000E+00  0.000E+00  0.000E+00  1.08939E+03  1.332E+00  1.561E+01  1.093E-01  1.444E+00
   1    3    3     1     3    3.9722E+01  4.0378E-01   3.9318E+01  0.000E+00  0.000E+00  0.000E+00  1.08375E+03  1.329E+00  1.555E+01  9.328E-02  1.443E+00
   1    3    4     1     4    3.9318E+01  3.7185E-01   3.8946E+01  0.000E+00  0.000E+00  0.000E+00  1.07873E+03  1.326E+00  1.549E+01  8.596E-02  1.442E+00
   1    4    5     2     1    3.6946E+01  3.5272E-01   3.6593E+01  0.000E+00  0.000E+00  0.000E+00  1.07346E+03  1.522E+00  1.200E+01  7.800E-02  1.507E+00
   1    5    6     2     2    3.6593E+01  2.7086E-01   3.6322E+01  0.000E+00  0.000E+00  0.000E+00  1.06802E+03  1.514E+00  1.200E+01  6.000E-02  1.505E+00
   1    6    6     2     3    3.6322E+01  2.7045E-01   3.6052E+01  0.000E+00  0.000E+00  0.000E+00  1.06330E+03  1.508E+00  1.200E+01  6.000E-02  1.503E+00
   1    7    6     2     4    3.6052E+01  2.7005E-01   3.5782E+01  0.000E+00  0.000E+00  0.000E+00  1.05858E+03  1.501E+00  1.200E+01  6.000E-02  1.500E+00
   1    8    6     2     5    3.5782E+01  2.6964E-01   3.5512E+01  0.000E+00  0.000E+00  0.000E+00  1.05385E+03  1.494E+00  1.200E+01  6.000E-02  1.498E+00
   1    3    5     3     1    2.0000E+00  2.8252E-01   1.7175E+00  0.000E+00  0.000E+00  0.000E+00  1.07555E+03  1.909E+00  9.636E+00  7.227E-02  1.955E+00
   1    3    6     3     2    1.7175E+00  2.4905E-01   1.4684E+00  0.000E+00  0.000E+00  0.000E+00  1.07264E+03  1.727E+00  8.909E+00  6.682E-02  1.864E+00
   1    3    7     3     3    1.4684E+00  1.9718E-01   1.2712E+00  0.000E+00  0.000E+00  0.000E+00  1.06987E+03  1.555E+00  8.218E+00  5.547E-02  1.777E+00
   1    4    8     3     4    1.2712E+00  2.2567E-01   1.0456E+00  0.000E+00  0.000E+00  0.000E+00  1.06682E+03  1.364E+00  7.455E+00  6.709E-02  1.682E+00
   1    5    8     3     5    1.0456E+00  1.5790E-01   8.8768E-01  0.000E+00  0.000E+00  0.000E+00  1.06362E+03  1.164E+00  6.655E+00  4.991E-02  1.582E+00
   1    6    8     3     6    8.8768E-01  5.5980E-02   8.3170E-01  0.000E+00  0.000E+00  0.000E+00  1.06158E+03  1.036E+00  6.145E+00  1.844E-02  1.518E+00
   1    5   10     4     1    1.0000E+01  9.0919E-02   9.9091E+00  0.000E+00  0.000E+00  0.000E+00  1.07836E+03  6.368E-01  1.000E+01  2.500E-02  1.212E+00
   1    5    9     4     2    9.9091E+00  1.8158E-01   9.7275E+00  0.000E+00  0.000E+00  0.000E+00  1.07154E+03  6.315E-01  1.000E+01  5.000E-02  1.211E+00
   1    6    8     4     3    9.7275E+00  1.2689E-01   9.6006E+00  0.000E+00  0.000E+00  0.000E+00  1.06381E+03  6.256E-01  1.000E+01  3.500E-02  1.209E+00
   1    6    8     5     1    1.0432E+01  2.2686E-01   1.0205E+01  0.000E+00  0.000E+00  0.000E+00  1.05868E+03  6.790E-01  1.542E+01  6.166E-02  1.226E+00
   1    7    7     5     2    1.0205E+01  2.7894E-01   9.9265E+00  0.000E+00  0.000E+00  0.000E+00  1.05417E+03  6.732E-01  1.519E+01  7.594E-02  1.224E+00
   1    8    7     5     3    9.9265E+00  1.9221E-01   9.7343E+00  0.000E+00  0.000E+00  0.000E+00  1.04992E+03  6.676E-01  1.497E+01  5.241E-02  1.223E+00
   1    8    6     5     4    9.7343E+00  1.3577E-01   9.5985E+00  0.000E+00  0.000E+00  0.000E+00  1.04691E+03  6.637E-01  1.482E+01  3.706E-02  1.221E+00
   1    9    6     6     1    9.5985E+00  2.2097E-01   9.3776E+00  0.000E+00  0.000E+00  0.000E+00  1.04341E+03  6.828E-01  1.200E+01  6.000E-02  1.228E+00
   1   10    7     6     2    9.3776E+00  2.2039E-01   9.1572E+00  0.000E+00  0.000E+00  0.000E+00  1.03885E+03  6.732E-01  1.200E+01  6.000E-02  1.224E+00
   1   11    7     6     3    9.1572E+00  2.1981E-01   8.9374E+00  0.000E+00  0.000E+00  0.000E+00  1.03430E+03  6.636E-01  1.200E+01  6.000E-02  1.221E+00
   1   12    7     6     4    8.9374E+00  2.1923E-01   8.7181E+00  0.000E+00  0.000E+00  0.000E+00  1.02974E+03  6.539E-01  1.200E+01  6.000E-02  1.218E+00
   1   13    7     6     5    8.7181E+00 -1.2767E-01   8.8458E+00  0.000E+00  0.000E+00  0.000E+00  1.02656E+03  6.518E-01  1.200E+01  2.400E-01 -1.773E-01
   1   14    9     7     1    1.5000E+02  1.3369E+00   1.4866E+02  0.000E+00  0.000E+00  0.000E+00  1.03987E+03  2.288E+00  5.529E+01  5.593E-01  7.968E-01
   1   13    8     7     2    1.4866E+02  1.8279E+00   1.4684E+02  0.000E+00  0.000E+00  0.000E+00  1.03478E+03  2.279E+00  5.526E+01  6.148E-01  9.911E-01
   1   13    7     7     3    1.4684E+02  1.4503E+00   1.4538E+02  0.000E+00  0.000E+00  0.000E+00  1.02969E+03  2.271E+00  5.522E+01  5.585E-01  8.657E-01
   1   13    6     8     1    1.5423E+02  8.0708E-01   1.5342E+02  0.000E+00  0.000E+00  0.000E+00  1.02472E+03  2.844E+00  4.123E+01  4.202E-01  6.403E-01
   1   13    5     8     2    1.5342E+02  8.4599E-02   1.5334E+02  0.000E+00  0.000E+00  0.000E+00  1.01847E+03  2.840E+00  4.119E+01  4.197E-01  6.719E-02
   1   13    4     8     3    1.5334E+02 -2.9666E+00   1.5631E+02  0.000E+00  0.000E+00  0.000E+00  1.01223E+03  2.850E+00  4.133E+01  4.212E+00 -2.348E-01
   1   13    3     8     4    1.5631E+02 -4.0700E+00   1.6038E+02  0.000E+00  0.000E+00  0.000E+00  1.00600E+03  2.875E+00  4.168E+01  4.247E+00 -3.194E-01
   1   13    2     8     5    1.6038E+02 -2.9986E+00   1.6337E+02  0.000E+00  0.000E+00  0.000E+00  9.99773E+02  2.898E+00  4.203E+01  4.283E+00 -2.334E-01
   1   13    1     8     6    1.6337E+02 -2.2397E+00   1.6561E+02  0.000E+00  0.000E+00  0.000E+00  9.94791E+02  2.916E+00  4.228E+01  2.585E+00 -2.888E-01
   1    8    6     9     1    3.5512E+01  0.0000E+00   3.5512E+01  0.000E+00  0.000E+00  0.000E+00  1.08360E+03  4.847E+00  4.000E+00  0.000E+00  2.616E+00
   1    8    5     9     2    3.5512E+01  0.0000E+00   3.5512E+01  0.000E+00  0.000E+00  0.000E+00  1.08310E+03  4.847E+00  4.000E+00  0.000E+00  2.616E+00



 UBDSV3 SAVING "           GW ET" ON UNIT  61 AT TIME STEP  1, STRESS PERIOD  20
 UBDSV3 SAVING "    UZF RECHARGE" ON UNIT  61 AT TIME STEP  1, STRESS PERIOD  20
 UBDSV3 SAVING " SURFACE LEAKAGE" ON UNIT  61 AT TIME STEP  1, STRESS PERIOD  20
 UBDSV3 SAVING "       HORT+DUNN" ON UNIT  61 AT TIME STEP  1, STRESS PERIOD  20
 UBDSV3 SAVING "  STORAGE CHANGE" ON UNIT  61 AT TIME STEP  1, STRESS PERIOD  20


UNSATURATED ZONE PACKAGE VOLUMETRIC BUDGET FOR  TIME STEP     1 STRESS PERIOD   20
  ------------------------------------------------------------------------------



     CUMULATIVE VOLUMES      L**3       RATES FOR THIS TIME STEP      L**3/T
     ------------------                 ------------------------

           IN:                                      IN:
           ---                                      ---
        INFILTRATION =   630848039.9493          INFILTRATION =         120.7882

          OUT:                                     OUT:
          ----                                     ----
              UZF ET =   537960631.1761                UZF ET =          60.8175
        UZF RECHARGE =       73224.0000          UZF RECHARGE =       0.0000E+00

            IN - OUT =    92814184.7732              IN - OUT =          59.9707

          STORAGE:                                 STORAGE:
          --------                                 --------
      STORAGE CHANGE =    92814672.7344        STORAGE CHANGE =          59.9707

 PERCENT DISCREPANCY IS DIFFERENCE BETWEEN IN-OUT MINUS CHANGE IN STORAGE
 DIVIDED BY THE AVERAGE OF IN AND OUT TIMES 100

 PERCENT DISCREPANCY =          -0.00     PERCENT DISCREPANCY =           0.00






 

            AG WELLS      PERIOD   20   STEP   1
 AG WELL      1   LAYER   1   ROW     6   COL     4   RATE    -14.0713    
 AG WELL      2   LAYER   1   ROW     6   COL     5   RATE    -14.0713    
 AG WELL      3   LAYER   1   ROW     7   COL     4   RATE    -14.0713    
 AG WELL      4   LAYER   1   ROW     7   COL     5   RATE    -14.0713    
 AG WELL      5   LAYER   1   ROW     8   COL     4   RATE    -14.0713    
 AG WELL      6   LAYER   1   ROW     8   COL     5   RATE    -14.0713    
 
 

   DIVERSION SEGMENTS     PERIOD   20   STEP   1
 SEGMENT      9   RATE     35.5122    
 
 

        SW IRRIGATION     PERIOD   20   STEP   1
 SEGMENT      9   ROW     6   COL     4   RATE     5.91882    
 SEGMENT      9   ROW     6   COL     5   RATE     5.91882    
 SEGMENT      9   ROW     7   COL     4   RATE     5.91882    
 SEGMENT      9   ROW     7   COL     5   RATE     5.91882    
 SEGMENT      9   ROW     8   COL     4   RATE     5.91882    
 SEGMENT      9   ROW     8   COL     5   RATE     5.91882    
 
 

        GW IRRIGATION     PERIOD   20   STEP   1
 AG WELL      1   ROW     6   COL     4   RATE     14.0713    
 AG WELL      2   ROW     6   COL     5   RATE     14.0713    
 AG WELL      3   ROW     7   COL     4   RATE     14.0713    
 AG WELL      4   ROW     7   COL     5   RATE     14.0713    
 AG WELL      5   ROW     8   COL     4   RATE     14.0713    
 AG WELL      6   ROW     8   COL     5   RATE     14.0713    
 
1
  VOLUMETRIC BUDGET FOR AGRICULTURAL FIELDS AT  END OF TIME STEP    1, STRESS PERIOD  20
  ------------------------------------------------------------------------------

     CUMULATIVE VOLUMES      L**3       RATES FOR THIS TIME STEP      L**3/T
     ------------------                 ------------------------

           IN:                                      IN:
           ---                                      ---
               AG WELLS  =   167878272.0000                 AG WELLS  =          84.4278
      DIVERSION SEGMENTS =   422695584.0000        DIVERSION SEGMENTS =          35.5122
           GW IRRIGATION =           0.0000             GW IRRIGATION =           0.0000
           SW IRRIGATION =           0.0000             SW IRRIGATION =           0.0000
        SYSTEM LOSSES GW =           0.0000          SYSTEM LOSSES GW =           0.0000
        SYSTEM LOSSES SW =           0.0000          SYSTEM LOSSES SW =           0.0000

                TOTAL IN =   590573824.0000                  TOTAL IN =         119.9400

          OUT:                                     OUT:
          ----                                     ----
               AG WELLS  =           0.0000                 AG WELLS  =           0.0000
      DIVERSION SEGMENTS =           0.0000        DIVERSION SEGMENTS =           0.0000
           GW IRRIGATION =   167878272.0000             GW IRRIGATION =          84.4278
           SW IRRIGATION =   422704000.0000             SW IRRIGATION =          35.5129
        SYSTEM LOSSES GW =           0.0000          SYSTEM LOSSES GW =           0.0000
        SYSTEM LOSSES SW =           0.0000          SYSTEM LOSSES SW =           0.0000

               TOTAL OUT =   590582272.0000                 TOTAL OUT =         119.9407

                IN - OUT =       -8448.0000                  IN - OUT =      -7.0953E-04

     PERCENT DISCREPANCY =          -0.00         PERCENT DISCREPANCY =          -0.00




 HEAD WILL BE SAVED ON UNIT   62 AT END OF TIME STEP    1, STRESS PERIOD   20
1
  VOLUMETRIC BUDGET FOR ENTIRE MODEL AT END OF TIME STEP    1, STRESS PERIOD  20
  ------------------------------------------------------------------------------

     CUMULATIVE VOLUMES      L**3       RATES FOR THIS TIME STEP      L**3/T
     ------------------                 ------------------------

           IN:                                      IN:
           ---                                      ---
             STORAGE     =   292823008.0000               STORAGE     =          85.7406
       CONSTANT HEAD     =           0.0000         CONSTANT HEAD     =           0.0000
     HEAD DEP BOUNDS     =    13577491.0000       HEAD DEP BOUNDS     =           0.2858
      STREAM LEAKAGE     =   572417920.0000        STREAM LEAKAGE     =          11.7770
        UZF RECHARGE     =       73223.9531          UZF RECHARGE     =           0.0000
               GW ET     =           0.0000                 GW ET     =           0.0000
     SURFACE LEAKAGE     =           0.0000       SURFACE LEAKAGE     =           0.0000
           AG WELLS      =           0.0000             AG WELLS      =           0.0000

                TOTAL IN =   878891648.0000                  TOTAL IN =          97.8035

          OUT:                                     OUT:
          ----                                     ----
             STORAGE     =   183398544.0000               STORAGE     =           0.6822
       CONSTANT HEAD     =           0.0000         CONSTANT HEAD     =           0.0000
     HEAD DEP BOUNDS     =    13842748.0000       HEAD DEP BOUNDS     =           0.2910
      STREAM LEAKAGE     =   511639328.0000        STREAM LEAKAGE     =          12.4025
        UZF RECHARGE     =           0.0000          UZF RECHARGE     =           0.0000
               GW ET     =     2141481.7500                 GW ET     =           0.0000
     SURFACE LEAKAGE     =           0.0000       SURFACE LEAKAGE     =           0.0000
           AG WELLS      =   167878272.0000             AG WELLS      =          84.4278

               TOTAL OUT =   878900416.0000                 TOTAL OUT =          97.8034

                IN - OUT =       -8768.0000                  IN - OUT =       6.1035E-05

     PERCENT DISCREPANCY =          -0.00         PERCENT DISCREPANCY =           0.00






         TIME SUMMARY AT END OF TIME STEP    1 IN STRESS PERIOD   20
                    SECONDS     MINUTES      HOURS       DAYS        YEARS
                    -----------------------------------------------------------
   TIME STEP LENGTH  87667.      1461.1      24.352      1.0147     2.77799E-03
 STRESS PERIOD TIME  87667.      1461.1      24.352      1.0147     2.77799E-03
         TOTAL TIME 4.75142E+07 7.91903E+05  13198.      549.93      1.5056    
1
 
 SOLVING FOR HEAD 
                                                   Max.-Head-Change                         Max.-Flux-Residual
  Residual-Control   Outer-Iter.   Inner-Iter.     Column Row Layer    Maximum-Head-Change  Column Row Layer    Maximum-Flux-Residual          L2-NORM 
          0                 1           2             5    8     1       0.1334955855E-01       5    8    1         0.7282594631E+00      0.1666535452E+01
          0                 2           2             4    7     1      -0.9465611819E-01       5    8    1        -0.5121864902E+01      0.1256347914E+02
          0                 3           2             4    7     1       0.2220695226E-01       5    8    1         0.1228125719E+01      0.3009332588E+01
          0                 4           2             4    7     1      -0.8836384391E-03       5    8    1        -0.5021586440E-01      0.1233622166E+00
          0                 5           1             4    7     1       0.1089564007E-04       5    6    1         0.6353575054E-03      0.1616134941E-02

    ------------------------------------------------
       NWT REQUIRED            5 OUTER ITERATIONS 
       AND A TOTAL OF          9 INNER ITERATIONS.
    ------------------------------------------------

 NO OUTPUT CONTROL FOR STRESS PERIOD   20   TIME STEP    2
 
 SOLVING FOR HEAD 
                                                   Max.-Head-Change                         Max.-Flux-Residual
  Residual-Control   Outer-Iter.   Inner-Iter.     Column Row Layer    Maximum-Head-Change  Column Row Layer    Maximum-Flux-Residual          L2-NORM 
          0                 1           2             5    8     1       0.1492871689E-01       5    8    1         0.8148715653E+00      0.1864774666E+01
          0                 2           2             4    7     1      -0.2623434609E+00       5    8    1        -0.1412854308E+02      0.3458870156E+02
          0                 3           2             4    7     1       0.1786420964E-01       5    6    1         0.9887574514E+00      0.2423053400E+01
          0                 4           2             4    7     1      -0.7108355709E-03       5    6    1        -0.4042541635E-01      0.9926316579E-01
          0                 5           1             4    7     1       0.8764907975E-05       5    6    1         0.5113016907E-03      0.1292508439E-02

    ------------------------------------------------
       NWT REQUIRED            5 OUTER ITERATIONS 
       AND A TOTAL OF          9 INNER ITERATIONS.
    ------------------------------------------------

 NO OUTPUT CONTROL FOR STRESS PERIOD   20   TIME STEP    3
 
 SOLVING FOR HEAD 
                                                   Max.-Head-Change                         Max.-Flux-Residual
  Residual-Control   Outer-Iter.   Inner-Iter.     Column Row Layer    Maximum-Head-Change  Column Row Layer    Maximum-Flux-Residual          L2-NORM 
          0                 1           2             5    8     1       0.2161699719E-01       5    8    1         0.1182871808E+01      0.2626213734E+01
          0                 2           2             4    7     1      -0.9490705921E-01       5    8    1        -0.5169727439E+01      0.1264630546E+02
          0                 3           2             4    7     1       0.2218059696E-01       5    8    1         0.1229093981E+01      0.3009107382E+01
          0                 4           2             4    7     1      -0.8825896815E-03       5    8    1        -0.5025732808E-01      0.1233471406E+00
          0                 5           1             4    7     1       0.1088270863E-04       5    8    1         0.6359808910E-03      0.1614013758E-02

    ------------------------------------------------
       NWT REQUIRED            5 OUTER ITERATIONS 
       AND A TOTAL OF          9 INNER ITERATIONS.
    ------------------------------------------------

 NO OUTPUT CONTROL FOR STRESS PERIOD   20   TIME STEP    4
 
 SOLVING FOR HEAD 
                                                   Max.-Head-Change                         Max.-Flux-Residual
  Residual-Control   Outer-Iter.   Inner-Iter.     Column Row Layer    Maximum-Head-Change  Column Row Layer    Maximum-Flux-Residual          L2-NORM 
          0                 1           2             5    8     1       0.2274993470E-01       5    8    1         0.1244567642E+01      0.2783560841E+01
          0                 2           2             4    7     1      -0.2625609362E+00       5    8    1        -0.1417149834E+02      0.3466207149E+02
          0                 3           2             4    7     1       0.1787902557E-01       5    6    1         0.9917277845E+00      0.2428150597E+01
          0                 4           2             4    7     1      -0.7114250769E-03       5    6    1        -0.4054851812E-01      0.9946605199E-01
          0                 5           1             4    7     1       0.8772176842E-05       5    6    1         0.5129714530E-03      0.1293516820E-02

    ------------------------------------------------
       NWT REQUIRED            5 OUTER ITERATIONS 
       AND A TOTAL OF          9 INNER ITERATIONS.
    ------------------------------------------------

 NO OUTPUT CONTROL FOR STRESS PERIOD   20   TIME STEP    5
 
 SOLVING FOR HEAD 
                                                   Max.-Head-Change                         Max.-Flux-Residual
  Residual-Control   Outer-Iter.   Inner-Iter.     Column Row Layer    Maximum-Head-Change  Column Row Layer    Maximum-Flux-Residual          L2-NORM 
          0                 1           2             5    8     1       0.2901776346E-01       5    8    1         0.1589096588E+01      0.3521101953E+01
          0                 2           2             4    7     1      -0.9513388895E-01       5    8    1        -0.5210352973E+01      0.1271818832E+02
          0                 3           2             4    7     1       0.2219608513E-01       5    8    1         0.1231952224E+01      0.3014018625E+01
          0                 4           2             4    7     1      -0.8832059317E-03       5    8    1        -0.5037582439E-01      0.1235445985E+00
          0                 5           1             4    7     1       0.1089030727E-04       5    8    1         0.6375903920E-03      0.1615645108E-02

    ------------------------------------------------
       NWT REQUIRED            5 OUTER ITERATIONS 
       AND A TOTAL OF          9 INNER ITERATIONS.
    ------------------------------------------------

 NO OUTPUT CONTROL FOR STRESS PERIOD   20   TIME STEP    6
 
 SOLVING FOR HEAD 
                                                   Max.-Head-Change                         Max.-Flux-Residual
  Residual-Control   Outer-Iter.   Inner-Iter.     Column Row Layer    Maximum-Head-Change  Column Row Layer    Maximum-Flux-Residual          L2-NORM 
          0                 1           2             5    8     1       0.2976152409E-01       5    8    1         0.1629094639E+01      0.3638073261E+01
          0                 2           2             4    7     1      -0.2627972518E+00       5    8    1        -0.1420995215E+02      0.3473062840E+02
          0                 3           2             4    7     1       0.1789512337E-01       5    8    1         0.9944173897E+00      0.2432914090E+01
          0                 4           2             4    7     1      -0.7120655951E-03       5    8    1        -0.4065974566E-01      0.9965594695E-01
          0                 5           1             4    7     1       0.8780074336E-05       5    6    1         0.5144703582E-03      0.1294595330E-02

    ------------------------------------------------
       NWT REQUIRED            5 OUTER ITERATIONS 
       AND A TOTAL OF          9 INNER ITERATIONS.
    ------------------------------------------------

 NO OUTPUT CONTROL FOR STRESS PERIOD   20   TIME STEP    7
 
 SOLVING FOR HEAD 
                                                   Max.-Head-Change                         Max.-Flux-Residual
  Residual-Control   Outer-Iter.   Inner-Iter.     Column Row Layer    Maximum-Head-Change  Column Row Layer    Maximum-Flux-Residual          L2-NORM 
          0                 1           2             5    8     1       0.3566396026E-01       5    8    1         0.1953255014E+01      0.4343913332E+01
          0                 2           2             4    8     1      -0.9541870668E-01       5    8    1        -0.5246770106E+01      0.1278540956E+02
          0                 3           2             4    7     1       0.2221273170E-01       5    8    1         0.1235947689E+01      0.3019196842E+01
          0                 4           2             4    7     1      -0.8838682771E-03       5    8    1        -0.5053933536E-01      0.1237530785E+00
          0                 5           1             4    7     1       0.1089847460E-04       5    8    1         0.6397330242E-03      0.1617251478E-02

    ------------------------------------------------
       NWT REQUIRED            5 OUTER ITERATIONS 
       AND A TOTAL OF          9 INNER ITERATIONS.
    ------------------------------------------------

 NO OUTPUT CONTROL FOR STRESS PERIOD   20   TIME STEP    8
 
 SOLVING FOR HEAD 
                                                   Max.-Head-Change                         Max.-Flux-Residual
  Residual-Control   Outer-Iter.   Inner-Iter.     Column Row Layer    Maximum-Head-Change  Column Row Layer    Maximum-Flux-Residual          L2-NORM 
          0                 1           2             5    8     1       0.3602349044E-01       5    8    1         0.1974596068E+01      0.4424877958E+01
          0                 2           2             4    7     1      -0.2630482983E+00       5    6    1        -0.1424198772E+02      0.3479359966E+02
          0                 3           2             4    7     1       0.1791232474E-01       5    8    1         0.1009270153E+01      0.2442544269E+01
          0                 4           2             4    7     1      -0.7127498849E-03       5    8    1        -0.4127259450E-01      0.1000459566E+00
          0                 5           1             4    7     1       0.8788512189E-05       5    8    1         0.5225949481E-03      0.1298112923E-02

    ------------------------------------------------
       NWT REQUIRED            5 OUTER ITERATIONS 
       AND A TOTAL OF          9 INNER ITERATIONS.
    ------------------------------------------------

 NO OUTPUT CONTROL FOR STRESS PERIOD   20   TIME STEP    9
 
 SOLVING FOR HEAD 
                                                   Max.-Head-Change                         Max.-Flux-Residual
  Residual-Control   Outer-Iter.   Inner-Iter.     Column Row Layer    Maximum-Head-Change  Column Row Layer    Maximum-Flux-Residual          L2-NORM 
          0                 1           2             5    8     1       0.4178703593E-01       5    8    1         0.2291586725E+01      0.5106452589E+01
          0                 2           2             5    6     1      -0.9588041507E-01       5    8    1        -0.5280597752E+01      0.1284881490E+02
          0                 3           2             4    7     1       0.2223025523E-01       5    8    1         0.1236899478E+01      0.3022935950E+01
          0                 4           2             4    7     1      -0.8845653221E-03       5    8    1        -0.5057851696E-01      0.1239035069E+00
          0                 5           1             4    7     1       0.1090706973E-04       5    8    1         0.6402468759E-03      0.1618402389E-02

    ------------------------------------------------
       NWT REQUIRED            5 OUTER ITERATIONS 
       AND A TOTAL OF          9 INNER ITERATIONS.
    ------------------------------------------------

 NO OUTPUT CONTROL FOR STRESS PERIOD   20   TIME STEP   10
 
 SOLVING FOR HEAD 
                                                   Max.-Head-Change                         Max.-Flux-Residual
  Residual-Control   Outer-Iter.   Inner-Iter.     Column Row Layer    Maximum-Head-Change  Column Row Layer    Maximum-Flux-Residual          L2-NORM 
          0                 1           2             5    8     1       0.4190022747E-01       5    8    1         0.2296495100E+01      0.5155547191E+01
          0                 2           2             4    7     1      -0.2633107265E+00       5    8    1        -0.1427668785E+02      0.3485532628E+02
          0                 3           2             4    7     1       0.1793012669E-01       5    8    1         0.9992343162E+00      0.2441693199E+01
          0                 4           2             4    7     1      -0.7134582274E-03       5    8    1        -0.4085763449E-01      0.1000071816E+00
          0                 5           1             4    7     1       0.8797246434E-05       5    6    1         0.5170375737E-03      0.1297051021E-02

    ------------------------------------------------
       NWT REQUIRED            5 OUTER ITERATIONS 
       AND A TOTAL OF          9 INNER ITERATIONS.
    ------------------------------------------------

 NO OUTPUT CONTROL FOR STRESS PERIOD   20   TIME STEP   11
 
 SOLVING FOR HEAD 
                                                   Max.-Head-Change                         Max.-Flux-Residual
  Residual-Control   Outer-Iter.   Inner-Iter.     Column Row Layer    Maximum-Head-Change  Column Row Layer    Maximum-Flux-Residual          L2-NORM 
          0                 1           2             5    8     1       0.4736757152E-01       5    8    1         0.2596986507E+01      0.5807811262E+01
          0                 2           2             5    6     1      -0.9640723742E-01       5    8    1        -0.5311137206E+01      0.1290828934E+02
          0                 3           2             4    7     1       0.2224846653E-01       5    8    1         0.1239037246E+01      0.3026984654E+01
          0                 4           2             4    7     1      -0.8852899464E-03       5    8    1        -0.5066672859E-01      0.1240673426E+00
          0                 5           1             4    7     1       0.1091600459E-04       5    8    1         0.6414175411E-03      0.1620124257E-02

    ------------------------------------------------
       NWT REQUIRED            5 OUTER ITERATIONS 
       AND A TOTAL OF          9 INNER ITERATIONS.
    ------------------------------------------------

 NO OUTPUT CONTROL FOR STRESS PERIOD   20   TIME STEP   12
 
 SOLVING FOR HEAD 
                                                   Max.-Head-Change                         Max.-Flux-Residual
  Residual-Control   Outer-Iter.   Inner-Iter.     Column Row Layer    Maximum-Head-Change  Column Row Layer    Maximum-Flux-Residual          L2-NORM 
          0                 1           2             5    8     1       0.4720405096E-01       5    8    1         0.2586492436E+01      0.5828132826E+01
          0                 2           2             4    7     1      -0.2635818089E+00       5    8    1        -0.1430568709E+02      0.3491213336E+02
          0                 3           2             4    7     1       0.1794858951E-01       5    8    1         0.1001274952E+01      0.2445648209E+01
          0                 4           2             4    7     1      -0.7141928637E-03       5    8    1        -0.4094213165E-01      0.1001663875E+00
          0                 5           1             4    7     1       0.8806304850E-05       5    8    1         0.5181728247E-03      0.1298247649E-02

    ------------------------------------------------
       NWT REQUIRED            5 OUTER ITERATIONS 
       AND A TOTAL OF          9 INNER ITERATIONS.
    ------------------------------------------------

 NO OUTPUT CONTROL FOR STRESS PERIOD   20   TIME STEP   13
 
 SOLVING FOR HEAD 
                                                   Max.-Head-Change                         Max.-Flux-Residual
  Residual-Control   Outer-Iter.   Inner-Iter.     Column Row Layer    Maximum-Head-Change  Column Row Layer    Maximum-Flux-Residual          L2-NORM 
          0                 1           2             5    8     1       0.5241266797E-01       5    8    1         0.2872592604E+01      0.6453726475E+01
          0                 2           2             5    6     1      -0.9688690574E-01       5    8    1        -0.5338697281E+01      0.1296410304E+02
          0                 3           2             4    7     1       0.2226717410E-01       5    8    1         0.1240966463E+01      0.3030787782E+01
          0                 4           2             4    7     1      -0.8860343220E-03       5    8    1        -0.5074630932E-01      0.1242215160E+00
          0                 5           1             4    7     1       0.1092518309E-04       5    8    1         0.6424719722E-03      0.1621770550E-02

    ------------------------------------------------
       NWT REQUIRED            5 OUTER ITERATIONS 
       AND A TOTAL OF          9 INNER ITERATIONS.
    ------------------------------------------------

 NO OUTPUT CONTROL FOR STRESS PERIOD   20   TIME STEP   14
 
 SOLVING FOR HEAD 
                                                   Max.-Head-Change                         Max.-Flux-Residual
  Residual-Control   Outer-Iter.   Inner-Iter.     Column Row Layer    Maximum-Head-Change  Column Row Layer    Maximum-Flux-Residual          L2-NORM 
          0                 1           2             5    8     1       0.5200743741E-01       5    8    1         0.2848663659E+01      0.6448692936E+01
          0                 2           2             4    7     1      -0.2638589814E+00       5    8    1        -0.1433190370E+02      0.3496550482E+02
          0                 3           2             4    7     1       0.1796746636E-01       5    8    1         0.1003119436E+01      0.2449366578E+01
          0                 4           2             4    7     1      -0.7149439785E-03       5    8    1        -0.4101847223E-01      0.1003163659E+00
          0                 5           1             4    7     1       0.8815566573E-05       5    8    1         0.5192015071E-03      0.1299495765E-02

    ------------------------------------------------
       NWT REQUIRED            5 OUTER ITERATIONS 
       AND A TOTAL OF          9 INNER ITERATIONS.
    ------------------------------------------------

 NO OUTPUT CONTROL FOR STRESS PERIOD   20   TIME STEP   15
 
 SOLVING FOR HEAD 
                                                   Max.-Head-Change                         Max.-Flux-Residual
  Residual-Control   Outer-Iter.   Inner-Iter.     Column Row Layer    Maximum-Head-Change  Column Row Layer    Maximum-Flux-Residual          L2-NORM 
          0                 1           2             5    8     1       0.5698991381E-01       5    8    1         0.3122202177E+01      0.7050158024E+01
          0                 2           2             5    6     1      -0.9732492096E-01       5    8    1        -0.5363657703E+01      0.1301655926E+02
          0                 3           2             4    7     1       0.2228622007E-01       5    8    1         0.1242713707E+01      0.3034365562E+01
          0                 4           2             4    7     1      -0.8867921667E-03       5    8    1        -0.5081836032E-01      0.1243666106E+00
          0                 5           1             4    7     1       0.1093452781E-04       5    8    1         0.6434250643E-03      0.1623189721E-02

    ------------------------------------------------
       NWT REQUIRED            5 OUTER ITERATIONS 
       AND A TOTAL OF          9 INNER ITERATIONS.
    ------------------------------------------------

 NO OUTPUT CONTROL FOR STRESS PERIOD   20   TIME STEP   16
 
 SOLVING FOR HEAD 
                                                   Max.-Head-Change                         Max.-Flux-Residual
  Residual-Control   Outer-Iter.   Inner-Iter.     Column Row Layer    Maximum-Head-Change  Column Row Layer    Maximum-Flux-Residual          L2-NORM 
          0                 1           2             5    8     1       0.5637294594E-01       5    8    1         0.3086521148E+01      0.7022735537E+01
          0                 2           2             4    7     1      -0.2641400418E+00       5    8    1        -0.1435568894E+02      0.3501572807E+02
          0                 3           2             4    7     1       0.1798660739E-01       5    8    1         0.1004792542E+01      0.2452865901E+01
          0                 4           2             4    7     1      -0.7157056075E-03       5    8    1        -0.4108768792E-01      0.1004578112E+00
          0                 5           1             4    7     1       0.8824957672E-05       5    8    1         0.5201320689E-03      0.1300711892E-02

    ------------------------------------------------
       NWT REQUIRED            5 OUTER ITERATIONS 
       AND A TOTAL OF          9 INNER ITERATIONS.
    ------------------------------------------------

 NO OUTPUT CONTROL FOR STRESS PERIOD   20   TIME STEP   17
 
 SOLVING FOR HEAD 
                                                   Max.-Head-Change                         Max.-Flux-Residual
  Residual-Control   Outer-Iter.   Inner-Iter.     Column Row Layer    Maximum-Head-Change  Column Row Layer    Maximum-Flux-Residual          L2-NORM 
          0                 1           2             5    8     1       0.6115696109E-01       5    8    1         0.3349051035E+01      0.7602391727E+01
          0                 2           2             5    6     1      -0.9772604039E-01       5    8    1        -0.5386342059E+01      0.1306592997E+02
          0                 3           2             4    7     1       0.2230546524E-01       5    8    1         0.1244301630E+01      0.3037736397E+01
          0                 4           2             4    7     1      -0.8875579402E-03       5    8    1        -0.5088381996E-01      0.1245033781E+00
          0                 5           1             4    7     1       0.1094397033E-04       5    8    1         0.6442895167E-03      0.1624426655E-02

    ------------------------------------------------
       NWT REQUIRED            5 OUTER ITERATIONS 
       AND A TOTAL OF          9 INNER ITERATIONS.
    ------------------------------------------------

 NO OUTPUT CONTROL FOR STRESS PERIOD   20   TIME STEP   18
 
 SOLVING FOR HEAD 
                                                   Max.-Head-Change                         Max.-Flux-Residual
  Residual-Control   Outer-Iter.   Inner-Iter.     Column Row Layer    Maximum-Head-Change  Column Row Layer    Maximum-Flux-Residual          L2-NORM 
          0                 1           2             5    8     1       0.6035402096E-01       5    8    1         0.3303062072E+01      0.7555127094E+01
          0                 2           2             4    7     1      -0.2644231265E+00       5    8    1        -0.1437734253E+02      0.3506306040E+02
          0                 3           2             4    7     1       0.1800588574E-01       5    8    1         0.1006315408E+01      0.2456164234E+01
          0                 4           2             4    7     1      -0.7164727038E-03       5    8    1        -0.4115065888E-01      0.1005912458E+00
          0                 5           1             4    7     1       0.8834416317E-05       5    8    1         0.5209766839E-03      0.1301890839E-02

    ------------------------------------------------
       NWT REQUIRED            5 OUTER ITERATIONS 
       AND A TOTAL OF          9 INNER ITERATIONS.
    ------------------------------------------------

 NO OUTPUT CONTROL FOR STRESS PERIOD   20   TIME STEP   19
 
 SOLVING FOR HEAD 
                                                   Max.-Head-Change                         Max.-Flux-Residual
  Residual-Control   Outer-Iter.   Inner-Iter.     Column Row Layer    Maximum-Head-Change  Column Row Layer    Maximum-Flux-Residual          L2-NORM 
          0                 1           2             5    8     1       0.6496339465E-01       5    8    1         0.3555918168E+01      0.8115069179E+01
          0                 2           2             5    6     1      -0.9809440993E-01       5    8    1        -0.5407028254E+01      0.1311246389E+02
          0                 3           2             4    7     1       0.2232479139E-01       5    8    1         0.1245749683E+01      0.3040917240E+01
          0                 4           2             4    7     1      -0.8883269391E-03       5    8    1        -0.5094349392E-01      0.1246316349E+00
          0                 5           1             4    7     1       0.1095345227E-04       5    8    1         0.6450762523E-03      0.1623595170E-02

    ------------------------------------------------
       NWT REQUIRED            5 OUTER ITERATIONS 
       AND A TOTAL OF          9 INNER ITERATIONS.
    ------------------------------------------------

 NO OUTPUT CONTROL FOR STRESS PERIOD   20   TIME STEP   20
 
 SOLVING FOR HEAD 
                                                   Max.-Head-Change                         Max.-Flux-Residual
  Residual-Control   Outer-Iter.   Inner-Iter.     Column Row Layer    Maximum-Head-Change  Column Row Layer    Maximum-Flux-Residual          L2-NORM 
          0                 1           2             5    8     1       0.6399683688E-01       5    8    1         0.3500873172E+01      0.8050184615E+01
          0                 2           2             4    7     1      -0.2647066229E+00       5    8    1        -0.1439712315E+02      0.3510773575E+02
          0                 3           2             4    7     1       0.1802519169E-01       5    8    1         0.1007706280E+01      0.2459277519E+01
          0                 4           2             4    7     1      -0.7172409004E-03       5    8    1        -0.4120814474E-01      0.1007173389E+00
          0                 5           1             4    7     1       0.8843888628E-05       5    8    1         0.5217459338E-03      0.1303093936E-02

    ------------------------------------------------
       NWT REQUIRED            5 OUTER ITERATIONS 
       AND A TOTAL OF          9 INNER ITERATIONS.
    ------------------------------------------------

 NO OUTPUT CONTROL FOR STRESS PERIOD   20   TIME STEP   21
 
 SOLVING FOR HEAD 
                                                   Max.-Head-Change                         Max.-Flux-Residual
  Residual-Control   Outer-Iter.   Inner-Iter.     Column Row Layer    Maximum-Head-Change  Column Row Layer    Maximum-Flux-Residual          L2-NORM 
          0                 1           2             5    8     1       0.6845212619E-01       5    8    1         0.3745205616E+01      0.8592249190E+01
          0                 2           2             5    6     1      -0.9843363245E-01       5    8    1        -0.5425956495E+01      0.1315638676E+02
          0                 3           2             4    7     1       0.2234409727E-01       5    8    1         0.1247074681E+01      0.3043922788E+01
          0                 4           2             4    7     1      -0.8890951345E-03       5    8    1        -0.5099807838E-01      0.1247546220E+00
          0                 5           1             4    7     1       0.1096292436E-04       5    8    1         0.6457946456E-03      0.1627283832E-02

    ------------------------------------------------
       NWT REQUIRED            5 OUTER ITERATIONS 
       AND A TOTAL OF          9 INNER ITERATIONS.
    ------------------------------------------------

 NO OUTPUT CONTROL FOR STRESS PERIOD   20   TIME STEP   22
 
 SOLVING FOR HEAD 
                                                   Max.-Head-Change                         Max.-Flux-Residual
  Residual-Control   Outer-Iter.   Inner-Iter.     Column Row Layer    Maximum-Head-Change  Column Row Layer    Maximum-Flux-Residual          L2-NORM 
          0                 1           2             5    8     1       0.6734074114E-01       5    8    1         0.3682155852E+01      0.8511678389E+01
          0                 2           2             4    7     1      -0.2649891654E+00       5    8    1        -0.1441525094E+02      0.3514996266E+02
          0                 3           2             4    7     1       0.1804443229E-01       5    8    1         0.1008980680E+01      0.2462219562E+01
          0                 4           2             4    7     1      -0.7180064996E-03       5    8    1        -0.4126079157E-01      0.1008365728E+00
          0                 5           1             4    7     1       0.8853328902E-05       5    8    1         0.5224487181E-03      0.1304247175E-02

    ------------------------------------------------
       NWT REQUIRED            5 OUTER ITERATIONS 
       AND A TOTAL OF          9 INNER ITERATIONS.
    ------------------------------------------------

 NO OUTPUT CONTROL FOR STRESS PERIOD   20   TIME STEP   23
 
 SOLVING FOR HEAD 
                                                   Max.-Head-Change                         Max.-Flux-Residual
  Residual-Control   Outer-Iter.   Inner-Iter.     Column Row Layer    Maximum-Head-Change  Column Row Layer    Maximum-Flux-Residual          L2-NORM 
          0                 1           2             5    8     1       0.7165977343E-01       5    8    1         0.3918961456E+01      0.9037500986E+01
          0                 2           2             5    6     1      -0.9874686790E-01       5    8    1        -0.5443331591E+01      0.1319790216E+02
          0                 3           2             4    7     1       0.2236329837E-01       5    8    1         0.1248290959E+01      0.3046766783E+01
          0                 4           2             4    7     1      -0.8898591622E-03       5    8    1        -0.5104816711E-01      0.1248702532E+00
          0                 5           1             4    7     1       0.1097234492E-04       5    8    1         0.6464527362E-03      0.1628488347E-02

    ------------------------------------------------
       NWT REQUIRED            5 OUTER ITERATIONS 
       AND A TOTAL OF          9 INNER ITERATIONS.
    ------------------------------------------------

 NO OUTPUT CONTROL FOR STRESS PERIOD   20   TIME STEP   24
 
 SOLVING FOR HEAD 
                                                   Max.-Head-Change                         Max.-Flux-Residual
  Residual-Control   Outer-Iter.   Inner-Iter.     Column Row Layer    Maximum-Head-Change  Column Row Layer    Maximum-Flux-Residual          L2-NORM 
          0                 1           2             5    8     1       0.7042026972E-01       5    8    1         0.3848840235E+01      0.8942926418E+01
          0                 2           2             4    7     1      -0.2652696070E+00       5    8    1        -0.1443191892E+02      0.3518993212E+02
          0                 3           2             4    7     1       0.1806352950E-01       5    8    1         0.1010152219E+01      0.2465003595E+01
          0                 4           2             4    7     1      -0.7187663944E-03       5    8    1        -0.4130916571E-01      0.1009493549E+00
          0                 5           1             4    7     1       0.8862698607E-05       5    8    1         0.5230929005E-03      0.1305390171E-02

    ------------------------------------------------
       NWT REQUIRED            5 OUTER ITERATIONS 
       AND A TOTAL OF          9 INNER ITERATIONS.
    ------------------------------------------------

 NO OUTPUT CONTROL FOR STRESS PERIOD   20   TIME STEP   25
 
 SOLVING FOR HEAD 
                                                   Max.-Head-Change                         Max.-Flux-Residual
  Residual-Control   Outer-Iter.   Inner-Iter.     Column Row Layer    Maximum-Head-Change  Column Row Layer    Maximum-Flux-Residual          L2-NORM 
          0                 1           2             5    8     1       0.7461840961E-01       5    8    1         0.4078976418E+01      0.9453951393E+01
          0                 2           2             5    6     1      -0.9903688047E-01       5    8    1        -0.5459332618E+01      0.1323719556E+02
          0                 3           2             4    7     1       0.2238232151E-01       5    8    1         0.1249411053E+01      0.3049461613E+01
          0                 4           2             4    7     1      -0.8906161106E-03       5    8    1        -0.5109427893E-01      0.1249798037E+00
          0                 5           1             4    7     1       0.1098167878E-04       5    8    1         0.6470574922E-03      0.1630023546E-02

    ------------------------------------------------
       NWT REQUIRED            5 OUTER ITERATIONS 
       AND A TOTAL OF          9 INNER ITERATIONS.
    ------------------------------------------------

 NO OUTPUT CONTROL FOR STRESS PERIOD   20   TIME STEP   26
 
 SOLVING FOR HEAD 
                                                   Max.-Head-Change                         Max.-Flux-Residual
  Residual-Control   Outer-Iter.   Inner-Iter.     Column Row Layer    Maximum-Head-Change  Column Row Layer    Maximum-Flux-Residual          L2-NORM 
          0                 1           2             5    8     1       0.7326508270E-01       5    8    1         0.4002581481E+01      0.9346836520E+01
          0                 2           2             4    7     1      -0.2655469944E+00       5    8    1        -0.1444729260E+02      0.3522781506E+02
          0                 3           2             4    7     1       0.1808241844E-01       5    8    1         0.1011232566E+01      0.2467641447E+01
          0                 4           2             4    7     1      -0.7195180034E-03       5    8    1        -0.4135375269E-01      0.1010560456E+00
          0                 5           1             4    7     1       0.8871966267E-05       5    8    1         0.5236851846E-03      0.1306321761E-02

    ------------------------------------------------
       NWT REQUIRED            5 OUTER ITERATIONS 
       AND A TOTAL OF          9 INNER ITERATIONS.
    ------------------------------------------------

 NO OUTPUT CONTROL FOR STRESS PERIOD   20   TIME STEP   27
 
 SOLVING FOR HEAD 
                                                   Max.-Head-Change                         Max.-Flux-Residual
  Residual-Control   Outer-Iter.   Inner-Iter.     Column Row Layer    Maximum-Head-Change  Column Row Layer    Maximum-Flux-Residual          L2-NORM 
          0                 1           2             5    8     1       0.7735559586E-01       5    8    1         0.4226788436E+01      0.9844331995E+01
          0                 2           2             5    6     1      -0.9930605480E-01       5    8    1        -0.5474113368E+01      0.1327442665E+02
          0                 3           2             4    7     1       0.2240110687E-01       5    8    1         0.1250445728E+01      0.3052017864E+01
          0                 4           2             4    7     1      -0.8913635994E-03       5    8    1        -0.5113685918E-01      0.1250788715E+00
          0                 5           1             4    7     1       0.1099089558E-04       5    8    1         0.6476149488E-03      0.1628932188E-02

    ------------------------------------------------
       NWT REQUIRED            5 OUTER ITERATIONS 
       AND A TOTAL OF          9 INNER ITERATIONS.
    ------------------------------------------------

 NO OUTPUT CONTROL FOR STRESS PERIOD   20   TIME STEP   28
 
 SOLVING FOR HEAD 
                                                   Max.-Head-Change                         Max.-Flux-Residual
  Residual-Control   Outer-Iter.   Inner-Iter.     Column Row Layer    Maximum-Head-Change  Column Row Layer    Maximum-Flux-Residual          L2-NORM 
          0                 1           2             5    8     1       0.7590093283E-01       5    8    1         0.4144816284E+01      0.9726054946E+01
          0                 2           2             4    7     1      -0.2658205036E+00       5    8    1        -0.1446151565E+02      0.3526376639E+02
          0                 3           2             4    7     1       0.1810104305E-01       5    8    1         0.1012231850E+01      0.2470144462E+01
          0                 4           2             4    7     1      -0.7202590959E-03       5    8    1        -0.4139497383E-01      0.1011574627E+00
          0                 5           1             4    7     1       0.8881104213E-05       5    8    1         0.5242314166E-03      0.1307345242E-02

    ------------------------------------------------
       NWT REQUIRED            5 OUTER ITERATIONS 
       AND A TOTAL OF          9 INNER ITERATIONS.
    ------------------------------------------------

 NO OUTPUT CONTROL FOR STRESS PERIOD   20   TIME STEP   29
 
 SOLVING FOR HEAD 
                                                   Max.-Head-Change                         Max.-Flux-Residual
  Residual-Control   Outer-Iter.   Inner-Iter.     Column Row Layer    Maximum-Head-Change  Column Row Layer    Maximum-Flux-Residual          L2-NORM 
          0                 1           2             5    8     1       0.7989196171E-01       5    8    1         0.4363740662E+01      0.1018379414E+02
          0                 2           2             5    6     1      -0.1080496693E+00       5    8    1        -0.5954794745E+01      0.1443424216E+02
          0                 3           2             5    6     1       0.7357738946E-02       5    8    1         0.4168330237E+00      0.1015245322E+01
          0                 4           2             5    6     1      -0.2927715195E-03       5    8    1        -0.1704850736E-01      0.4188802332E-01
          0                 5           1             7   13     1      -0.4779781107E-05       7   13    1        -0.2815409366E-03      0.5945453911E-03

    ------------------------------------------------
       NWT REQUIRED            5 OUTER ITERATIONS 
       AND A TOTAL OF          9 INNER ITERATIONS.
    ------------------------------------------------

 NO OUTPUT CONTROL FOR STRESS PERIOD   20   TIME STEP   30



 STREAM LISTING     PERIOD     20   STEP       30

 LAYER ROW COL. STREAM  RCH.  FLOW INTO     FLOW TO   FLOW OUT OF   OVRLND.     DIRECT     STREAM       STREAM     STREAM     STREAM   STREAMBED  STREAMBED
                SEG.NO.  NO.  STRM. RCH.    AQUIFER    STRM. RCH.    RUNOFF     PRECIP       ET          HEAD       DEPTH      WIDTH   CONDCTNC.   GRADIENT

   1    1    1     1     1    3.2276E+01  2.7609E-01   3.2000E+01  0.000E+00  0.000E+00  0.000E+00  1.09432E+03  1.269E+00  1.437E+01  6.467E-02  1.423E+00
   1    2    2     1     2    3.2000E+01  4.2738E-01   3.1573E+01  0.000E+00  0.000E+00  0.000E+00  1.08932E+03  1.266E+00  1.431E+01  1.002E-01  1.422E+00
   1    3    3     1     3    3.1573E+01  3.6428E-01   3.1209E+01  0.000E+00  0.000E+00  0.000E+00  1.08368E+03  1.263E+00  1.424E+01  8.546E-02  1.421E+00
   1    3    4     1     4    3.1209E+01  3.3528E-01   3.0873E+01  0.000E+00  0.000E+00  0.000E+00  1.07867E+03  1.259E+00  1.418E+01  7.871E-02  1.420E+00
   1    4    5     2     1    2.8873E+01  3.3633E-01   2.8537E+01  0.000E+00  0.000E+00  0.000E+00  1.07325E+03  1.312E+00  1.200E+01  7.800E-02  1.437E+00
   1    5    6     2     2    2.8537E+01  2.5823E-01   2.8279E+01  0.000E+00  0.000E+00  0.000E+00  1.06781E+03  1.304E+00  1.200E+01  6.000E-02  1.435E+00
   1    6    6     2     3    2.8279E+01  2.5780E-01   2.8021E+01  0.000E+00  0.000E+00  0.000E+00  1.06309E+03  1.297E+00  1.200E+01  6.000E-02  1.432E+00
   1    7    6     2     4    2.8021E+01  2.5737E-01   2.7764E+01  0.000E+00  0.000E+00  0.000E+00  1.05836E+03  1.290E+00  1.200E+01  6.000E-02  1.430E+00
   1    8    6     2     5    2.7764E+01  2.5694E-01   2.7507E+01  0.000E+00  0.000E+00  0.000E+00  1.05364E+03  1.282E+00  1.200E+01  6.000E-02  1.427E+00
   1    3    5     3     1    2.0000E+00  2.8252E-01   1.7175E+00  0.000E+00  0.000E+00  0.000E+00  1.07555E+03  1.909E+00  9.636E+00  7.227E-02  1.955E+00
   1    3    6     3     2    1.7175E+00  2.4905E-01   1.4684E+00  0.000E+00  0.000E+00  0.000E+00  1.07264E+03  1.727E+00  8.909E+00  6.682E-02  1.864E+00
   1    3    7     3     3    1.4684E+00  1.9718E-01   1.2712E+00  0.000E+00  0.000E+00  0.000E+00  1.06987E+03  1.555E+00  8.218E+00  5.547E-02  1.777E+00
   1    4    8     3     4    1.2712E+00  2.2567E-01   1.0456E+00  0.000E+00  0.000E+00  0.000E+00  1.06682E+03  1.364E+00  7.455E+00  6.709E-02  1.682E+00
   1    5    8     3     5    1.0456E+00  1.5790E-01   8.8768E-01  0.000E+00  0.000E+00  0.000E+00  1.06362E+03  1.164E+00  6.655E+00  4.991E-02  1.582E+00
   1    6    8     3     6    8.8768E-01  5.5980E-02   8.3170E-01  0.000E+00  0.000E+00  0.000E+00  1.06158E+03  1.036E+00  6.145E+00  1.844E-02  1.518E+00
   1    5   10     4     1    1.0000E+01  9.0919E-02   9.9091E+00  0.000E+00  0.000E+00  0.000E+00  1.07836E+03  6.368E-01  1.000E+01  2.500E-02  1.212E+00
   1    5    9     4     2    9.9091E+00  1.8158E-01   9.7275E+00  0.000E+00  0.000E+00  0.000E+00  1.07154E+03  6.315E-01  1.000E+01  5.000E-02  1.211E+00
   1    6    8     4     3    9.7275E+00  1.2689E-01   9.6006E+00  0.000E+00  0.000E+00  0.000E+00  1.06381E+03  6.256E-01  1.000E+01  3.500E-02  1.209E+00
   1    6    8     5     1    1.0432E+01  2.2686E-01   1.0205E+01  0.000E+00  0.000E+00  0.000E+00  1.05868E+03  6.790E-01  1.542E+01  6.166E-02  1.226E+00
   1    7    7     5     2    1.0205E+01  2.7894E-01   9.9265E+00  0.000E+00  0.000E+00  0.000E+00  1.05417E+03  6.732E-01  1.519E+01  7.594E-02  1.224E+00
   1    8    7     5     3    9.9265E+00  1.9221E-01   9.7343E+00  0.000E+00  0.000E+00  0.000E+00  1.04992E+03  6.676E-01  1.497E+01  5.241E-02  1.223E+00
   1    8    6     5     4    9.7343E+00  1.3577E-01   9.5985E+00  0.000E+00  0.000E+00  0.000E+00  1.04691E+03  6.637E-01  1.482E+01  3.706E-02  1.221E+00
   1    9    6     6     1    9.5985E+00  2.2097E-01   9.3776E+00  0.000E+00  0.000E+00  0.000E+00  1.04341E+03  6.828E-01  1.200E+01  6.000E-02  1.228E+00
   1   10    7     6     2    9.3776E+00  2.2039E-01   9.1572E+00  0.000E+00  0.000E+00  0.000E+00  1.03885E+03  6.732E-01  1.200E+01  6.000E-02  1.224E+00
   1   11    7     6     3    9.1572E+00  2.1981E-01   8.9374E+00  0.000E+00  0.000E+00  0.000E+00  1.03430E+03  6.636E-01  1.200E+01  6.000E-02  1.221E+00
   1   12    7     6     4    8.9374E+00  2.1923E-01   8.7181E+00  0.000E+00  0.000E+00  0.000E+00  1.02974E+03  6.539E-01  1.200E+01  6.000E-02  1.218E+00
   1   13    7     6     5    8.7181E+00 -1.1814E-01   8.8363E+00  0.000E+00  0.000E+00  0.000E+00  1.02656E+03  6.516E-01  1.200E+01  2.400E-01 -1.641E-01
   1   14    9     7     1    1.5000E+02  1.3371E+00   1.4866E+02  0.000E+00  0.000E+00  0.000E+00  1.03987E+03  2.288E+00  5.529E+01  5.593E-01  7.969E-01
   1   13    8     7     2    1.4866E+02  1.8326E+00   1.4683E+02  0.000E+00  0.000E+00  0.000E+00  1.03478E+03  2.279E+00  5.526E+01  6.148E-01  9.936E-01
   1   13    7     7     3    1.4683E+02  1.4726E+00   1.4536E+02  0.000E+00  0.000E+00  0.000E+00  1.02969E+03  2.270E+00  5.522E+01  5.585E-01  8.790E-01
   1   13    6     8     1    1.5419E+02  8.2824E-01   1.5337E+02  0.000E+00  0.000E+00  0.000E+00  1.02472E+03  2.843E+00  4.123E+01  4.201E-01  6.571E-01
   1   13    5     8     2    1.5337E+02  1.0458E-01   1.5326E+02  0.000E+00  0.000E+00  0.000E+00  1.01847E+03  2.840E+00  4.118E+01  4.196E-01  8.307E-02
   1   13    4     8     3    1.5326E+02 -2.6554E+00   1.5592E+02  0.000E+00  0.000E+00  0.000E+00  1.01222E+03  2.849E+00  4.131E+01  4.209E+00 -2.103E-01
   1   13    3     8     4    1.5592E+02 -3.7687E+00   1.5969E+02  0.000E+00  0.000E+00  0.000E+00  1.00600E+03  2.871E+00  4.163E+01  4.242E+00 -2.961E-01
   1   13    2     8     5    1.5969E+02 -2.6554E+00   1.6234E+02  0.000E+00  0.000E+00  0.000E+00  9.99768E+02  2.893E+00  4.194E+01  4.274E+00 -2.071E-01
   1   13    1     8     6    1.6234E+02 -2.0538E+00   1.6439E+02  0.000E+00  0.000E+00  0.000E+00  9.94783E+02  2.908E+00  4.217E+01  2.579E+00 -2.655E-01
   1    8    6     9     1    2.7507E+01  0.0000E+00   2.7507E+01  0.000E+00  0.000E+00  0.000E+00  1.08291E+03  4.158E+00  4.000E+00  0.000E+00  2.386E+00
   1    8    5     9     2    2.7507E+01  0.0000E+00   2.7507E+01  0.000E+00  0.000E+00  0.000E+00  1.08241E+03  4.158E+00  4.000E+00  0.000E+00  2.386E+00





UNSATURATED ZONE PACKAGE VOLUMETRIC BUDGET FOR  TIME STEP    30 STRESS PERIOD   20
  ------------------------------------------------------------------------------



     CUMULATIVE VOLUMES      L**3       RATES FOR THIS TIME STEP      L**3/T
     ------------------                 ------------------------

           IN:                                      IN:
           ---                                      ---
        INFILTRATION =   859741382.3298          INFILTRATION =          61.4653

          OUT:                                     OUT:
          ----                                     ----
              UZF ET =   692578981.3066                UZF ET =          60.8175
        UZF RECHARGE =       73224.0000          UZF RECHARGE =       0.0000E+00

            IN - OUT =   167089177.0232              IN - OUT =           0.6478

          STORAGE:                                 STORAGE:
          --------                                 --------
      STORAGE CHANGE =   167089660.0990        STORAGE CHANGE =           0.6478

 PERCENT DISCREPANCY IS DIFFERENCE BETWEEN IN-OUT MINUS CHANGE IN STORAGE
 DIVIDED BY THE AVERAGE OF IN AND OUT TIMES 100

 PERCENT DISCREPANCY =          -0.00     PERCENT DISCREPANCY =           0.00






1
  VOLUMETRIC BUDGET FOR AGRICULTURAL FIELDS AT  END OF TIME STEP   30, STRESS PERIOD  20
  ------------------------------------------------------------------------------

     CUMULATIVE VOLUMES      L**3       RATES FOR THIS TIME STEP      L**3/T
     ------------------                 ------------------------

           IN:                                      IN:
           ---                                      ---
               AG WELLS  =   305033024.0000                 AG WELLS  =          33.1106
      DIVERSION SEGMENTS =   512277952.0000        DIVERSION SEGMENTS =          27.5067
           GW IRRIGATION =           0.0000             GW IRRIGATION =           0.0000
           SW IRRIGATION =           0.0000             SW IRRIGATION =           0.0000
        SYSTEM LOSSES GW =           0.0000          SYSTEM LOSSES GW =           0.0000
        SYSTEM LOSSES SW =           0.0000          SYSTEM LOSSES SW =           0.0000

                TOTAL IN =   817310976.0000                  TOTAL IN =          60.6173

          OUT:                                     OUT:
          ----                                     ----
               AG WELLS  =           0.0000                 AG WELLS  =           0.0000
      DIVERSION SEGMENTS =           0.0000        DIVERSION SEGMENTS =           0.0000
           GW IRRIGATION =   305033024.0000             GW IRRIGATION =          33.1106
           SW IRRIGATION =   512288192.0000             SW IRRIGATION =          27.5073
        SYSTEM LOSSES GW =           0.0000          SYSTEM LOSSES GW =           0.0000
        SYSTEM LOSSES SW =           0.0000          SYSTEM LOSSES SW =           0.0000

               TOTAL OUT =   817321216.0000                 TOTAL OUT =          60.6178

                IN - OUT =      -10240.0000                  IN - OUT =      -5.4932E-04

     PERCENT DISCREPANCY =          -0.00         PERCENT DISCREPANCY =          -0.00



1
  VOLUMETRIC BUDGET FOR ENTIRE MODEL AT END OF TIME STEP   30, STRESS PERIOD  20
  ------------------------------------------------------------------------------

     CUMULATIVE VOLUMES      L**3       RATES FOR THIS TIME STEP      L**3/T
     ------------------                 ------------------------

           IN:                                      IN:
           ---                                      ---
             STORAGE     =   430752000.0000               STORAGE     =          33.0794
       CONSTANT HEAD     =           0.0000         CONSTANT HEAD     =           0.0000
     HEAD DEP BOUNDS     =    14304189.0000       HEAD DEP BOUNDS     =           0.2858
      STREAM LEAKAGE     =   602436416.0000        STREAM LEAKAGE     =          11.6266
        UZF RECHARGE     =       73223.9531          UZF RECHARGE     =           0.0000
               GW ET     =           0.0000                 GW ET     =           0.0000
     SURFACE LEAKAGE     =           0.0000       SURFACE LEAKAGE     =           0.0000
           AG WELLS      =           0.0000             AG WELLS      =           0.0000

                TOTAL IN =  1047565824.0000                  TOTAL IN =          44.9919

          OUT:                                     OUT:
          ----                                     ----
             STORAGE     =   184625680.0000               STORAGE     =           0.3418
       CONSTANT HEAD     =           0.0000         CONSTANT HEAD     =           0.0000
     HEAD DEP BOUNDS     =    14577894.0000       HEAD DEP BOUNDS     =           0.2880
      STREAM LEAKAGE     =   541196224.0000        STREAM LEAKAGE     =          11.2514
        UZF RECHARGE     =           0.0000          UZF RECHARGE     =           0.0000
               GW ET     =     2141481.7500                 GW ET     =           0.0000
     SURFACE LEAKAGE     =           0.0000       SURFACE LEAKAGE     =           0.0000
           AG WELLS      =   305033024.0000             AG WELLS      =          33.1106

               TOTAL OUT =  1047574336.0000                 TOTAL OUT =          44.9918

                IN - OUT =       -8512.0000                  IN - OUT =       2.2888E-05

     PERCENT DISCREPANCY =          -0.00         PERCENT DISCREPANCY =           0.00






         TIME SUMMARY AT END OF TIME STEP   30 IN STRESS PERIOD   20
                    SECONDS     MINUTES      HOURS       DAYS        YEARS
                    -----------------------------------------------------------
   TIME STEP LENGTH  87667.      1461.1      24.352      1.0147     2.77799E-03
 STRESS PERIOD TIME 2.63000E+06  43833.      730.56      30.440     8.33397E-02
         TOTAL TIME 5.00565E+07 8.34276E+05  13905.      579.36      1.5862    
1
1
                            STRESS PERIOD NO.   21, LENGTH =   2630000.    
                            -----------------------------------------------

                              NUMBER OF TIME STEPS =    30

                               MULTIPLIER FOR DELT =     1.000

                            INITIAL TIME STEP SIZE =   87666.66    

 REUSING NON-PARAMETER GHB CELLS FROM LAST STRESS PERIOD

      2 GHB CELLS

 REUSING STREAM SEGMENT DATA FROM LAST STRESS PERIOD



            AREAL INFILTRATION RATE
 READING ON UNIT   19 WITH FORMAT: (FREE)              

            1           2           3           4           5           6           7           8           9          10
 ........................................................................................................................
   1   1.0000E-10  2.0000E-10   0.000       0.000       0.000       0.000       0.000       0.000       0.000       0.000    
   2   2.0000E-10  1.0000E-10  2.0000E-10   0.000       0.000      8.0000E-10  8.0000E-10  5.0000E-10   0.000       0.000    
   3    0.000      5.0000E-10  1.0000E-10  1.0000E-10  8.0000E-10  8.0000E-10  5.0000E-10  5.0000E-10   0.000       0.000    
   4   8.0000E-10  5.0000E-10  1.0000E-10  1.0000E-10  1.0000E-10  1.0000E-10  1.0000E-10  1.0000E-10  2.0000E-10   0.000    
   5   8.0000E-10  5.0000E-10  1.0000E-10  1.0000E-10  1.0000E-10  1.0000E-10  1.0000E-10  1.0000E-10  1.0000E-10  1.0000E-10
   6   8.0000E-10  5.0000E-10  5.0000E-10  2.0000E-10  2.0000E-10  1.0000E-10  1.0000E-10  1.0000E-10  1.0000E-10  5.0000E-10
   7   8.0000E-10  5.0000E-10  5.0000E-10  2.0000E-10  2.0000E-10  1.0000E-10  1.0000E-10  2.0000E-10  2.0000E-10   0.000    
   8    0.000      5.0000E-10  5.0000E-10  2.0000E-10  2.0000E-10  1.0000E-10  1.0000E-10  2.0000E-10  5.0000E-10   0.000    
   9    0.000      5.0000E-10  5.0000E-10  2.0000E-10  2.0000E-10  1.0000E-10  1.0000E-10  2.0000E-10  5.0000E-10   0.000    
  10    0.000      5.0000E-10  5.0000E-10  2.0000E-10  2.0000E-10  1.0000E-10  1.0000E-10  2.0000E-10  5.0000E-10  8.0000E-10
  11    0.000      1.0000E-10  1.0000E-10  1.0000E-10  1.0000E-10  1.0000E-10  1.0000E-10  2.0000E-10  5.0000E-10   0.000    
  12   1.0000E-10  1.0000E-10  1.0000E-10  1.0000E-10  1.0000E-10  1.0000E-10  1.0000E-10  1.0000E-10  2.0000E-10   0.000    
  13   1.0000E-10  1.0000E-10  2.0000E-10  2.0000E-10  2.0000E-10  2.0000E-10  2.0000E-10  1.0000E-10  1.0000E-10   0.000    
  14    0.000      2.0000E-10  5.0000E-10  5.0000E-10  5.0000E-10  5.0000E-10  5.0000E-10  2.0000E-10  1.0000E-10   0.000    
  15    0.000       0.000      8.0000E-10  8.0000E-10  8.0000E-10  8.0000E-10   0.000       0.000       0.000       0.000    

                  ET RATE =  3.250000E-07

 USING ET EXTINCTION DEPTH FROM PREVIOUS STRESS PERIOD. CURRENT PERIOD IS:      21

 USING EXTINCTION WATER CONTENT FROM PREVIOUS STRESS PERIOD. CURRENT PERIOD IS:      21

 USING AIR ENTRY PRESSURE FROM PREVIOUS STRESS PERIOD. CURRENT PERIOD IS:      21

 USING ROOT PRESSURE HEAD FROM PREVIOUS STRESS PERIOD. CURRENT PERIOD IS:      21

 USING ROOT ACTIVITY FROM PREVIOUS STRESS PERIOD. CURRENT PERIOD IS:      21

 PROCESSING AG STRESS PERIOD DATA

 READING AG STRESS PERIOD DATA

 READING IRRIGATION SEGMENT

 READING IRRIGATION WELL

 READING SUPPLEMENTAL WELL

 END PROCESSING AG STRESS PERIOD DATA OPTIONS
 
 SOLVING FOR HEAD 
                                                   Max.-Head-Change                         Max.-Flux-Residual
  Residual-Control   Outer-Iter.   Inner-Iter.     Column Row Layer    Maximum-Head-Change  Column Row Layer    Maximum-Flux-Residual          L2-NORM 
          0                 1           2             5    8     1       0.7906353008E-01       5    8    1         0.4316462251E+01      0.1012486314E+02
          0                 2           2             4    7     1      -0.2347255692E+00       5    8    1        -0.1279459567E+02      0.3116197057E+02
          0                 3           2             4    7     1       0.1598367617E-01       5    8    1         0.8955814820E+00      0.2183623645E+01
          0                 4           2             4    7     1      -0.6360066907E-03       5    8    1        -0.3662684122E-01      0.8948630815E-01
          0                 5           1             4    7     1       0.7842236396E-05       5    8    1         0.4640010982E-03      0.1166272111E-02

    ------------------------------------------------
       NWT REQUIRED            5 OUTER ITERATIONS 
       AND A TOTAL OF          9 INNER ITERATIONS.
    ------------------------------------------------

 NO OUTPUT CONTROL FOR STRESS PERIOD   21   TIME STEP    1
 
 SOLVING FOR HEAD 
                                                   Max.-Head-Change                         Max.-Flux-Residual
  Residual-Control   Outer-Iter.   Inner-Iter.     Column Row Layer    Maximum-Head-Change  Column Row Layer    Maximum-Flux-Residual          L2-NORM 
          0                 1           2             5    8     1       0.8201479893E-01       5    8    1         0.4477790031E+01      0.1049480405E+02
          0                 2           2             5    8     1      -0.3958243470E-01       5    8    1        -0.2188159336E+01      0.5206003898E+01
          0                 3           2             4    7     1       0.3260003300E-01       5    8    1         0.1812892544E+01      0.4442741106E+01
          0                 4           2             4    7     1      -0.1292639791E-02       5    8    1        -0.7387588860E-01      0.1805130114E+00
          0                 5           2             4   13     1      -0.1723270496E-03       4   13    1        -0.1070353568E-01      0.1931717641E-01
          0                 6           2             4   13     1      -0.1685379223E-03       4   13    1        -0.1046705398E-01      0.1895794006E-01
          0                 7           2             4    7     1       0.1319640946E-02       5    6    1         0.8123087343E-01      0.1998823288E+00
          0                 8           1             4    7     1       0.8845362746E-04       5    8    1         0.5445701453E-02      0.1334020822E-01

    ------------------------------------------------
       NWT REQUIRED            8 OUTER ITERATIONS 
       AND A TOTAL OF         15 INNER ITERATIONS.
    ------------------------------------------------

 NO OUTPUT CONTROL FOR STRESS PERIOD   21   TIME STEP    2
 
 SOLVING FOR HEAD 
                                                   Max.-Head-Change                         Max.-Flux-Residual
  Residual-Control   Outer-Iter.   Inner-Iter.     Column Row Layer    Maximum-Head-Change  Column Row Layer    Maximum-Flux-Residual          L2-NORM 
          0                 1           2             5    8     1       0.7813448875E-01       5    8    1         0.4261992543E+01      0.1010519410E+02
          0                 2           2             4    7     1      -0.1604495910E+00       5    8    1        -0.8791498686E+01      0.2138367863E+02
          0                 3           2             4    7     1       0.1092590689E-01       5    8    1         0.6153987685E+00      0.1500242277E+01
          0                 4           2             4    7     1      -0.4347526057E-03       5    8    1        -0.2516987440E-01      0.6161799833E-01
          0                 5           1             4    7     1       0.5360687166E-05       5    8    1         0.3189798379E-03      0.8269597173E-03

    ------------------------------------------------
       NWT REQUIRED            5 OUTER ITERATIONS 
       AND A TOTAL OF          9 INNER ITERATIONS.
    ------------------------------------------------

 NO OUTPUT CONTROL FOR STRESS PERIOD   21   TIME STEP    3
 
 SOLVING FOR HEAD 
                                                   Max.-Head-Change                         Max.-Flux-Residual
  Residual-Control   Outer-Iter.   Inner-Iter.     Column Row Layer    Maximum-Head-Change  Column Row Layer    Maximum-Flux-Residual          L2-NORM 
          0                 1           2             5    8     1       0.7903161635E-01       5    8    1         0.4310125687E+01      0.1024001208E+02
          0                 2           2             5    6     1      -0.4876919568E-01       5    8    1        -0.2692884679E+01      0.6468178595E+01
          0                 3           2             4    7     1       0.3202536814E-01       5    8    1         0.1779407230E+01      0.4359792083E+01
          0                 4           2             4    7     1      -0.1274324920E-02       5    8    1        -0.7276422149E-01      0.1792556762E+00
          0                 5           1             4    7     1       0.1571296993E-04       5    8    1         0.9212022192E-03      0.2431754769E-02

    ------------------------------------------------
       NWT REQUIRED            5 OUTER ITERATIONS 
       AND A TOTAL OF          9 INNER ITERATIONS.
    ------------------------------------------------

 NO OUTPUT CONTROL FOR STRESS PERIOD   21   TIME STEP    4
 
 SOLVING FOR HEAD 
                                                   Max.-Head-Change                         Max.-Flux-Residual
  Residual-Control   Outer-Iter.   Inner-Iter.     Column Row Layer    Maximum-Head-Change  Column Row Layer    Maximum-Flux-Residual          L2-NORM 
          0                 1           2             5    8     1       0.7573843138E-01       5    8    1         0.4126998020E+01      0.9911469825E+01
          0                 2           2             4    7     1      -0.1722128017E+00       5    8    1        -0.9400948246E+01      0.2289805864E+02
          0                 3           2             4    7     1       0.1172691497E-01       5    8    1         0.6580578927E+00      0.1605991720E+01
          0                 4           2             4    7     1      -0.4666255768E-03       5    8    1        -0.2691450223E-01      0.6592395673E-01
          0                 5           1             4    7     1       0.5753694802E-05       5    8    1         0.3410803288E-03      0.8783192146E-03

    ------------------------------------------------
       NWT REQUIRED            5 OUTER ITERATIONS 
       AND A TOTAL OF          9 INNER ITERATIONS.
    ------------------------------------------------

 NO OUTPUT CONTROL FOR STRESS PERIOD   21   TIME STEP    5
 
 SOLVING FOR HEAD 
                                                   Max.-Head-Change                         Max.-Flux-Residual
  Residual-Control   Outer-Iter.   Inner-Iter.     Column Row Layer    Maximum-Head-Change  Column Row Layer    Maximum-Flux-Residual          L2-NORM 
          0                 1           2             5    8     1       0.7715805019E-01       5    8    1         0.4204188987E+01      0.1009660287E+02
          0                 2           2             5    6     1      -0.4695323476E-01       5    8    1        -0.2591450965E+01      0.6238378978E+01
          0                 3           2             4    7     1       0.3356717016E-01       5    8    1         0.1863147551E+01      0.4567390465E+01
          0                 4           2             4    7     1      -0.1335675271E-02       5    8    1        -0.7618762240E-01      0.1878200573E+00
          0                 5           1             4    7     1       0.1646944521E-04       5    6    1         0.9645217447E-03      0.2552408662E-02

    ------------------------------------------------
       NWT REQUIRED            5 OUTER ITERATIONS 
       AND A TOTAL OF          9 INNER ITERATIONS.
    ------------------------------------------------

 NO OUTPUT CONTROL FOR STRESS PERIOD   21   TIME STEP    6
 
 SOLVING FOR HEAD 
                                                   Max.-Head-Change                         Max.-Flux-Residual
  Residual-Control   Outer-Iter.   Inner-Iter.     Column Row Layer    Maximum-Head-Change  Column Row Layer    Maximum-Flux-Residual          L2-NORM 
          0                 1           2             5    8     1       0.7391863280E-01       5    8    1         0.4024212716E+01      0.9771373774E+01
          0                 2           2             4    7     1      -0.1689457599E+00       5    8    1        -0.9207575007E+01      0.2244382741E+02
          0                 3           2             4    7     1       0.1150444480E-01       5    8    1         0.6445197812E+00      0.1574229916E+01
          0                 4           2             4    7     1      -0.4577732646E-03       5    8    1        -0.2636056546E-01      0.6462730772E-01
          0                 5           1             4    7     1       0.5644542057E-05       5    8    1         0.3340449184E-03      0.8622759213E-03

    ------------------------------------------------
       NWT REQUIRED            5 OUTER ITERATIONS 
       AND A TOTAL OF          9 INNER ITERATIONS.
    ------------------------------------------------

 NO OUTPUT CONTROL FOR STRESS PERIOD   21   TIME STEP    7
 
 SOLVING FOR HEAD 
                                                   Max.-Head-Change                         Max.-Flux-Residual
  Residual-Control   Outer-Iter.   Inner-Iter.     Column Row Layer    Maximum-Head-Change  Column Row Layer    Maximum-Flux-Residual          L2-NORM 
          0                 1           2             5    8     1       0.7538476199E-01       5    8    1         0.4104140389E+01      0.9955287098E+01
          0                 2           2             5    6     1      -0.4727378111E-01       5    8    1        -0.2607718200E+01      0.6295307798E+01
          0                 3           2             4    7     1       0.3313358987E-01       5    8    1         0.1838014138E+01      0.4506785593E+01
          0                 4           2             4    7     1      -0.1318422575E-02       5    8    1        -0.7515955415E-01      0.1853196321E+00
          0                 5           1             4    7     1       0.1625671223E-04       5    6    1         0.9515208485E-03      0.2517314326E-02

    ------------------------------------------------
       NWT REQUIRED            5 OUTER ITERATIONS 
       AND A TOTAL OF          9 INNER ITERATIONS.
    ------------------------------------------------

 NO OUTPUT CONTROL FOR STRESS PERIOD   21   TIME STEP    8
 
 SOLVING FOR HEAD 
                                                   Max.-Head-Change                         Max.-Flux-Residual
  Residual-Control   Outer-Iter.   Inner-Iter.     Column Row Layer    Maximum-Head-Change  Column Row Layer    Maximum-Flux-Residual          L2-NORM 
          0                 1           2             5    8     1       0.7231382555E-01       5    8    1         0.3933621243E+01      0.9646290613E+01
          0                 2           2             4    7     1      -0.1700742586E+00       5    8    1        -0.9252202236E+01      0.2256941168E+02
          0                 3           2             4    7     1       0.1158128710E-01       5    8    1         0.6476398962E+00      0.1582973169E+01
          0                 4           2             4    7     1      -0.4608309119E-03       5    8    1        -0.2648781570E-01      0.6498127806E-01
          0                 5           1             4    7     1       0.5682243899E-05       5    6    1         0.3356477034E-03      0.8661502112E-03

    ------------------------------------------------
       NWT REQUIRED            5 OUTER ITERATIONS 
       AND A TOTAL OF          9 INNER ITERATIONS.
    ------------------------------------------------

 NO OUTPUT CONTROL FOR STRESS PERIOD   21   TIME STEP    9
 
 SOLVING FOR HEAD 
                                                   Max.-Head-Change                         Max.-Flux-Residual
  Residual-Control   Outer-Iter.   Inner-Iter.     Column Row Layer    Maximum-Head-Change  Column Row Layer    Maximum-Flux-Residual          L2-NORM 
          0                 1           2             5    8     1       0.7393665874E-01       5    8    1         0.4022338275E+01      0.9841628733E+01
          0                 2           2             5    6     1      -0.4700352074E-01       5    8    1        -0.2591798670E+01      0.6270538659E+01
          0                 3           2             4    7     1       0.3327242831E-01       5    8    1         0.1844639324E+01      0.4524167359E+01
          0                 4           2             4    7     1      -0.1323947168E-02       5    8    1        -0.7543006347E-01      0.1860365655E+00
          0                 5           1             4    7     1       0.1632483260E-04       5    6    1         0.9549466317E-03      0.2527342450E-02

    ------------------------------------------------
       NWT REQUIRED            5 OUTER ITERATIONS 
       AND A TOTAL OF          9 INNER ITERATIONS.
    ------------------------------------------------

 NO OUTPUT CONTROL FOR STRESS PERIOD   21   TIME STEP   10
 
 SOLVING FOR HEAD 
                                                   Max.-Head-Change                         Max.-Flux-Residual
  Residual-Control   Outer-Iter.   Inner-Iter.     Column Row Layer    Maximum-Head-Change  Column Row Layer    Maximum-Flux-Residual          L2-NORM 
          0                 1           2             5    6     1       0.7101447780E-01       5    8    1         0.3857907192E+01      0.9542762846E+01
          0                 2           2             4    7     1      -0.1698961562E+00       5    8    1        -0.9228878237E+01      0.2252625457E+02
          0                 3           2             4    7     1       0.1156915727E-01       5    8    1         0.6460045691E+00      0.1579930238E+01
          0                 4           2             4    7     1      -0.4603482631E-03       5    8    1        -0.2642066847E-01      0.6485512271E-01
          0                 5           1             4    7     1       0.5676292550E-05       5    6    1         0.3348223140E-03      0.8643324085E-03

    ------------------------------------------------
       NWT REQUIRED            5 OUTER ITERATIONS 
       AND A TOTAL OF          9 INNER ITERATIONS.
    ------------------------------------------------

 NO OUTPUT CONTROL FOR STRESS PERIOD   21   TIME STEP   11
 
 SOLVING FOR HEAD 
                                                   Max.-Head-Change                         Max.-Flux-Residual
  Residual-Control   Outer-Iter.   Inner-Iter.     Column Row Layer    Maximum-Head-Change  Column Row Layer    Maximum-Flux-Residual          L2-NORM 
          0                 1           2             5    8     1       0.7269569262E-01       5    8    1         0.3952209041E+01      0.9743918491E+01
          0                 2           2             5    6     1      -0.4693272343E-01       5    8    1        -0.2587053779E+01      0.6271187677E+01
          0                 3           2             4    7     1       0.3324170617E-01       5    8    1         0.1842039348E+01      0.4518684639E+01
          0                 4           2             4    7     1      -0.1322724720E-02       5    8    1        -0.7532343109E-01      0.1858100667E+00
          0                 5           1             4    7     1       0.1630975932E-04       5    6    1         0.9535969671E-03      0.2524113646E-02

    ------------------------------------------------
       NWT REQUIRED            5 OUTER ITERATIONS 
       AND A TOTAL OF          9 INNER ITERATIONS.
    ------------------------------------------------

 NO OUTPUT CONTROL FOR STRESS PERIOD   21   TIME STEP   12
 
 SOLVING FOR HEAD 
                                                   Max.-Head-Change                         Max.-Flux-Residual
  Residual-Control   Outer-Iter.   Inner-Iter.     Column Row Layer    Maximum-Head-Change  Column Row Layer    Maximum-Flux-Residual          L2-NORM 
          0                 1           2             5    6     1       0.6995207801E-01       5    8    1         0.3793550704E+01      0.9454954647E+01
          0                 2           2             4    7     1      -0.1700858155E+00       5    8    1        -0.9227063311E+01      0.2253373705E+02
          0                 3           2             4    7     1       0.1158207022E-01       5    8    1         0.6458750568E+00      0.1580424016E+01
          0                 4           2             4    7     1      -0.4608620914E-03       5    6    1        -0.2641577414E-01      0.6487292750E-01
          0                 5           1             4    7     1       0.5682628446E-05       5    6    1         0.3347508525E-03      0.8641485028E-03

    ------------------------------------------------
       NWT REQUIRED            5 OUTER ITERATIONS 
       AND A TOTAL OF          9 INNER ITERATIONS.
    ------------------------------------------------

 NO OUTPUT CONTROL FOR STRESS PERIOD   21   TIME STEP   13
 
 SOLVING FOR HEAD 
                                                   Max.-Head-Change                         Max.-Flux-Residual
  Residual-Control   Outer-Iter.   Inner-Iter.     Column Row Layer    Maximum-Head-Change  Column Row Layer    Maximum-Flux-Residual          L2-NORM 
          0                 1           2             5    6     1       0.7167774082E-01       5    8    1         0.3893181444E+01      0.9661989547E+01
          0                 2           2             5    6     1      -0.4682552300E-01       5    8    1        -0.2580485762E+01      0.6265571850E+01
          0                 3           2             4    7     1       0.3325968034E-01       5    8    1         0.1842245137E+01      0.4519975300E+01
          0                 4           2             4    7     1      -0.1323439959E-02       5    8    1        -0.7533155994E-01      0.1858632129E+00
          0                 5           1             4    7     1       0.1631857814E-04       5    6    1         0.9536967962E-03      0.2525092712E-02

    ------------------------------------------------
       NWT REQUIRED            5 OUTER ITERATIONS 
       AND A TOTAL OF          9 INNER ITERATIONS.
    ------------------------------------------------

 NO OUTPUT CONTROL FOR STRESS PERIOD   21   TIME STEP   14
 
 SOLVING FOR HEAD 
                                                   Max.-Head-Change                         Max.-Flux-Residual
  Residual-Control   Outer-Iter.   Inner-Iter.     Column Row Layer    Maximum-Head-Change  Column Row Layer    Maximum-Flux-Residual          L2-NORM 
          0                 1           2             5    6     1       0.6904875973E-01       5    6    1         0.3740174047E+01      0.9381290152E+01
          0                 2           2             4    7     1      -0.1701538179E+00       5    6    1        -0.9220371414E+01      0.2252735510E+02
          0                 3           2             4    7     1       0.1158669919E-01       5    6    1         0.6454127657E+00      0.1579948959E+01
          0                 4           2             4    7     1      -0.4610462910E-03       5    6    1        -0.2639683720E-01      0.6485126562E-01
          0                 5           1             4    7     1       0.5684899658E-05       5    6    1         0.3344874731E-03      0.8635516630E-03

    ------------------------------------------------
       NWT REQUIRED            5 OUTER ITERATIONS 
       AND A TOTAL OF          9 INNER ITERATIONS.
    ------------------------------------------------

 NO OUTPUT CONTROL FOR STRESS PERIOD   21   TIME STEP   15
 
 SOLVING FOR HEAD 
                                                   Max.-Head-Change                         Max.-Flux-Residual
  Residual-Control   Outer-Iter.   Inner-Iter.     Column Row Layer    Maximum-Head-Change  Column Row Layer    Maximum-Flux-Residual          L2-NORM 
          0                 1           2             5    6     1       0.7084404193E-01       5    8    1         0.3843309824E+01      0.9592903007E+01
          0                 2           2             5    6     1      -0.4674806193E-01       5    8    1        -0.2575693776E+01      0.6262918146E+01
          0                 3           2             4    7     1       0.3326247717E-01       5    8    1         0.1841714674E+01      0.4519262656E+01
          0                 4           2             4    7     1      -0.1323551270E-02       5    6    1        -0.7531037477E-01      0.1858282473E+00
          0                 5           1             4    7     1       0.1631995077E-04       5    6    1         0.9534142841E-03      0.2524115971E-02

    ------------------------------------------------
       NWT REQUIRED            5 OUTER ITERATIONS 
       AND A TOTAL OF          9 INNER ITERATIONS.
    ------------------------------------------------

 NO OUTPUT CONTROL FOR STRESS PERIOD   21   TIME STEP   16
 
 SOLVING FOR HEAD 
                                                   Max.-Head-Change                         Max.-Flux-Residual
  Residual-Control   Outer-Iter.   Inner-Iter.     Column Row Layer    Maximum-Head-Change  Column Row Layer    Maximum-Flux-Residual          L2-NORM 
          0                 1           2             5    6     1       0.6828089342E-01       5    6    1         0.3696850584E+01      0.9319503446E+01
          0                 2           2             4    7     1      -0.1702452359E+00       5    6    1        -0.9216435939E+01      0.2252589645E+02
          0                 3           2             4    7     1       0.1159292283E-01       5    6    1         0.6451341141E+00      0.1579808433E+01
          0                 4           2             4    7     1      -0.4612939428E-03       5    6    1        -0.2638513253E-01      0.6483424383E-01
          0                 5           1             4    7     1       0.5687953295E-05       5    6    1         0.3343182434E-03      0.8631114867E-03

    ------------------------------------------------
       NWT REQUIRED            5 OUTER ITERATIONS 
       AND A TOTAL OF          9 INNER ITERATIONS.
    ------------------------------------------------

 NO OUTPUT CONTROL FOR STRESS PERIOD   21   TIME STEP   17
 
 SOLVING FOR HEAD 
                                                   Max.-Head-Change                         Max.-Flux-Residual
  Residual-Control   Outer-Iter.   Inner-Iter.     Column Row Layer    Maximum-Head-Change  Column Row Layer    Maximum-Flux-Residual          L2-NORM 
          0                 1           2             5    6     1       0.7013731075E-01       5    8    1         0.3801377861E+01      0.9535011870E+01
          0                 2           2             5    7     1      -0.4669600162E-01       5    8    1        -0.2571443729E+01      0.6260126996E+01
          0                 3           2             4    7     1       0.3326893394E-01       5    8    1         0.1841474333E+01      0.4519326371E+01
          0                 4           2             4    7     1      -0.1323808211E-02       5    6    1        -0.7530092306E-01      0.1858362153E+00
          0                 5           1             4    7     1       0.1632311922E-04       5    6    1         0.9532808831E-03      0.2525038760E-02

    ------------------------------------------------
       NWT REQUIRED            5 OUTER ITERATIONS 
       AND A TOTAL OF          9 INNER ITERATIONS.
    ------------------------------------------------

 NO OUTPUT CONTROL FOR STRESS PERIOD   21   TIME STEP   18
 
 SOLVING FOR HEAD 
                                                   Max.-Head-Change                         Max.-Flux-Residual
  Residual-Control   Outer-Iter.   Inner-Iter.     Column Row Layer    Maximum-Head-Change  Column Row Layer    Maximum-Flux-Residual          L2-NORM 
          0                 1           2             5    6     1       0.6763107812E-01       5    6    1         0.3660119597E+01      0.9267973566E+01
          0                 2           2             4    7     1      -0.1703189674E+00       5    6    1        -0.9212645668E+01      0.2252374555E+02
          0                 3           2             4    7     1       0.1159794226E-01       5    6    1         0.6448659756E+00      0.1579642086E+01
          0                 4           2             4    7     1      -0.4614936776E-03       5    6    1        -0.2637389179E-01      0.6483446296E-01
          0                 5           1             4    7     1       0.5690416053E-05       5    6    1         0.3341571680E-03      0.8627537168E-03

    ------------------------------------------------
       NWT REQUIRED            5 OUTER ITERATIONS 
       AND A TOTAL OF          9 INNER ITERATIONS.
    ------------------------------------------------

 NO OUTPUT CONTROL FOR STRESS PERIOD   21   TIME STEP   19
 
 SOLVING FOR HEAD 
                                                   Max.-Head-Change                         Max.-Flux-Residual
  Residual-Control   Outer-Iter.   Inner-Iter.     Column Row Layer    Maximum-Head-Change  Column Row Layer    Maximum-Flux-Residual          L2-NORM 
          0                 1           2             5    6     1       0.6953992752E-01       5    8    1         0.3766222975E+01      0.9486702211E+01
          0                 2           2             5    7     1      -0.4669675984E-01       5    8    1        -0.2567945526E+01      0.6258192457E+01
          0                 3           2             4    7     1       0.3327361439E-01       5    8    1         0.1841212294E+01      0.4519176931E+01
          0                 4           2             4    7     1      -0.1323994469E-02       5    6    1        -0.7529041391E-01      0.1858299713E+00
          0                 5           1             4    7     1       0.1632541586E-04       5    6    1         0.9531355729E-03      0.2524824668E-02

    ------------------------------------------------
       NWT REQUIRED            5 OUTER ITERATIONS 
       AND A TOTAL OF          9 INNER ITERATIONS.
    ------------------------------------------------

 NO OUTPUT CONTROL FOR STRESS PERIOD   21   TIME STEP   20
 
 SOLVING FOR HEAD 
                                                   Max.-Head-Change                         Max.-Flux-Residual
  Residual-Control   Outer-Iter.   Inner-Iter.     Column Row Layer    Maximum-Head-Change  Column Row Layer    Maximum-Flux-Residual          L2-NORM 
          0                 1           2             5    6     1       0.6708305855E-01       5    6    1         0.3629070982E+01      0.9225238037E+01
          0                 2           2             4    7     1      -0.1703884073E+00       5    6    1        -0.9209577163E+01      0.2252246173E+02
          0                 3           2             4    7     1       0.1160266961E-01       5    6    1         0.6446486551E+00      0.1579527135E+01
          0                 4           2             4    7     1      -0.4616817889E-03       5    6    1        -0.2636475827E-01      0.6482782521E-01
          0                 5           1             4    7     1       0.5692735208E-05       5    6    1         0.3340247818E-03      0.8623414444E-03

    ------------------------------------------------
       NWT REQUIRED            5 OUTER ITERATIONS 
       AND A TOTAL OF          9 INNER ITERATIONS.
    ------------------------------------------------

 NO OUTPUT CONTROL FOR STRESS PERIOD   21   TIME STEP   21
 
 SOLVING FOR HEAD 
                                                   Max.-Head-Change                         Max.-Flux-Residual
  Residual-Control   Outer-Iter.   Inner-Iter.     Column Row Layer    Maximum-Head-Change  Column Row Layer    Maximum-Flux-Residual          L2-NORM 
          0                 1           2             5    6     1       0.6903780027E-01       5    8    1         0.3736885430E+01      0.9446670266E+01
          0                 2           2             5    7     1      -0.4669808635E-01       5    8    1        -0.2565006395E+01      0.6256708818E+01
          0                 3           2             4    7     1       0.3327821431E-01       5    8    1         0.1841011860E+01      0.4519110323E+01
          0                 4           2             4    7     1      -0.1324177520E-02       5    6    1        -0.7528229933E-01      0.1858269963E+00
          0                 5           1             4    7     1       0.1632767273E-04       5    6    1         0.9530218806E-03      0.2525007980E-02

    ------------------------------------------------
       NWT REQUIRED            5 OUTER ITERATIONS 
       AND A TOTAL OF          9 INNER ITERATIONS.
    ------------------------------------------------

 NO OUTPUT CONTROL FOR STRESS PERIOD   21   TIME STEP   22
 
 SOLVING FOR HEAD 
                                                   Max.-Head-Change                         Max.-Flux-Residual
  Residual-Control   Outer-Iter.   Inner-Iter.     Column Row Layer    Maximum-Head-Change  Column Row Layer    Maximum-Flux-Residual          L2-NORM 
          0                 1           2             5    6     1       0.6662384744E-01       5    6    1         0.3602976397E+01      0.9190099079E+01
          0                 2           2             4    7     1      -0.1704506634E+00       5    6    1        -0.9206957320E+01      0.2252149446E+02
          0                 3           2             4    7     1       0.1160690790E-01       5    6    1         0.6444629967E+00      0.1579434229E+01
          0                 4           2             4    7     1      -0.4618504401E-03       5    6    1        -0.2635694469E-01      0.6482202728E-01
          0                 5           1             4    7     1       0.5694814988E-05       5    6    1         0.3339107818E-03      0.8619660457E-03

    ------------------------------------------------
       NWT REQUIRED            5 OUTER ITERATIONS 
       AND A TOTAL OF          9 INNER ITERATIONS.
    ------------------------------------------------

 NO OUTPUT CONTROL FOR STRESS PERIOD   21   TIME STEP   23
 
 SOLVING FOR HEAD 
                                                   Max.-Head-Change                         Max.-Flux-Residual
  Residual-Control   Outer-Iter.   Inner-Iter.     Column Row Layer    Maximum-Head-Change  Column Row Layer    Maximum-Flux-Residual          L2-NORM 
          0                 1           2             5    6     1       0.6861806667E-01       5    8    1         0.3712569422E+01      0.9413779702E+01
          0                 2           2             5    7     1      -0.4670059378E-01       5    8    1        -0.2562576323E+01      0.6255683216E+01
          0                 3           2             4    7     1       0.3328229395E-01       5    8    1         0.1840840325E+01      0.4519055973E+01
          0                 4           2             4    7     1      -0.1324339867E-02       5    6    1        -0.7527526079E-01      0.1858246481E+00
          0                 5           1             4    7     1       0.1632967466E-04       5    6    1         0.9529229312E-03      0.2524881069E-02

    ------------------------------------------------
       NWT REQUIRED            5 OUTER ITERATIONS 
       AND A TOTAL OF          9 INNER ITERATIONS.
    ------------------------------------------------

 NO OUTPUT CONTROL FOR STRESS PERIOD   21   TIME STEP   24
 
 SOLVING FOR HEAD 
                                                   Max.-Head-Change                         Max.-Flux-Residual
  Residual-Control   Outer-Iter.   Inner-Iter.     Column Row Layer    Maximum-Head-Change  Column Row Layer    Maximum-Flux-Residual          L2-NORM 
          0                 1           2             5    6     1       0.6624140246E-01       5    6    1         0.3581162510E+01      0.9161530390E+01
          0                 2           2             4    7     1      -0.1705076232E+00       5    6    1        -0.9204778890E+01      0.2252093708E+02
          0                 3           2             4    7     1       0.1161078565E-01       5    6    1         0.6443084599E+00      0.1579371099E+01
          0                 4           2             4    7     1      -0.4620047444E-03       5    6    1        -0.2635042571E-01      0.6481757898E-01
          0                 5           1             4    7     1       0.5696717896E-05       5    6    1         0.3338147139E-03      0.8616363468E-03

    ------------------------------------------------
       NWT REQUIRED            5 OUTER ITERATIONS 
       AND A TOTAL OF          9 INNER ITERATIONS.
    ------------------------------------------------

 NO OUTPUT CONTROL FOR STRESS PERIOD   21   TIME STEP   25
 
 SOLVING FOR HEAD 
                                                   Max.-Head-Change                         Max.-Flux-Residual
  Residual-Control   Outer-Iter.   Inner-Iter.     Column Row Layer    Maximum-Head-Change  Column Row Layer    Maximum-Flux-Residual          L2-NORM 
          0                 1           2             5    6     1       0.6827003167E-01       5    8    1         0.3692557397E+01      0.9387079343E+01
          0                 2           2             5    7     1      -0.4670412158E-01       5    8    1        -0.2560574972E+01      0.6255037413E+01
          0                 3           2             4    7     1       0.3328604921E-01       5    8    1         0.1840700647E+01      0.4519029972E+01
          0                 4           2             4    7     1      -0.1324489306E-02       5    6    1        -0.7526945145E-01      0.1858231114E+00
          0                 5           1             4    7     1       0.1633151731E-04       5    6    1         0.9528404921E-03      0.2524820110E-02

    ------------------------------------------------
       NWT REQUIRED            5 OUTER ITERATIONS 
       AND A TOTAL OF          9 INNER ITERATIONS.
    ------------------------------------------------

 NO OUTPUT CONTROL FOR STRESS PERIOD   21   TIME STEP   26
 
 SOLVING FOR HEAD 
                                                   Max.-Head-Change                         Max.-Flux-Residual
  Residual-Control   Outer-Iter.   Inner-Iter.     Column Row Layer    Maximum-Head-Change  Column Row Layer    Maximum-Flux-Residual          L2-NORM 
          0                 1           2             5    6     1       0.6592580328E-01       5    6    1         0.3563074265E+01      0.9138643181E+01
          0                 2           2             4    7     1      -0.1705595987E+00       5    6    1        -0.9202968247E+01      0.2252069743E+02
          0                 3           2             4    7     1       0.1161432411E-01       5    6    1         0.6441798610E+00      0.1579329991E+01
          0                 4           2             4    7     1      -0.4621455470E-03       5    6    1        -0.2634498638E-01      0.6481402119E-01
          0                 5           1             4    7     1       0.5698454014E-05       5    6    1         0.3337335743E-03      0.8613427037E-03

    ------------------------------------------------
       NWT REQUIRED            5 OUTER ITERATIONS 
       AND A TOTAL OF          9 INNER ITERATIONS.
    ------------------------------------------------

 NO OUTPUT CONTROL FOR STRESS PERIOD   21   TIME STEP   27
 
 SOLVING FOR HEAD 
                                                   Max.-Head-Change                         Max.-Flux-Residual
  Residual-Control   Outer-Iter.   Inner-Iter.     Column Row Layer    Maximum-Head-Change  Column Row Layer    Maximum-Flux-Residual          L2-NORM 
          0                 1           2             5    6     1       0.6798448162E-01       5    8    1         0.3676266753E+01      0.9365763699E+01
          0                 2           2             5    7     1      -0.4670871952E-01       5    8    1        -0.2558946229E+01      0.6254729011E+01
          0                 3           2             4    7     1       0.3328947510E-01       5    8    1         0.1840586218E+01      0.4519023252E+01
          0                 4           2             4    7     1      -0.1324625636E-02       5    6    1        -0.7526461860E-01      0.1858227576E+00
          0                 5           1             4    7     1       0.1633319842E-04       5    6    1         0.9527712789E-03      0.2547730831E-02

    ------------------------------------------------
       NWT REQUIRED            5 OUTER ITERATIONS 
       AND A TOTAL OF          9 INNER ITERATIONS.
    ------------------------------------------------

 NO OUTPUT CONTROL FOR STRESS PERIOD   21   TIME STEP   28
 
 SOLVING FOR HEAD 
                                                   Max.-Head-Change                         Max.-Flux-Residual
  Residual-Control   Outer-Iter.   Inner-Iter.     Column Row Layer    Maximum-Head-Change  Column Row Layer    Maximum-Flux-Residual          L2-NORM 
          0                 1           2             5    6     1       0.6566834509E-01       5    6    1         0.3548225869E+01      0.9120694549E+01
          0                 2           2             4    7     1      -0.1706073619E+00       5    6    1        -0.9201485397E+01      0.2252075499E+02
          0                 3           2             4    7     1       0.1161757582E-01       5    6    1         0.6440743766E+00      0.1579310669E+01
          0                 4           2             4    7     1      -0.4622749392E-03       5    6    1        -0.2634050893E-01      0.6481140166E-01
          0                 5           1             4    7     1       0.5700049217E-05       5    6    1         0.3336657583E-03      0.8610254275E-03

    ------------------------------------------------
       NWT REQUIRED            5 OUTER ITERATIONS 
       AND A TOTAL OF          9 INNER ITERATIONS.
    ------------------------------------------------

 NO OUTPUT CONTROL FOR STRESS PERIOD   21   TIME STEP   29
 
 SOLVING FOR HEAD 
                                                   Max.-Head-Change                         Max.-Flux-Residual
  Residual-Control   Outer-Iter.   Inner-Iter.     Column Row Layer    Maximum-Head-Change  Column Row Layer    Maximum-Flux-Residual          L2-NORM 
          0                 1           2             5    6     1       0.6775303979E-01       5    8    1         0.3663171645E+01      0.9349118785E+01
          0                 2           2             5    7     1      -0.4671431360E-01       5    8    1        -0.2557636557E+01      0.6254711559E+01
          0                 3           2             4    7     1       0.3329264086E-01       5    8    1         0.1840494957E+01      0.4519039186E+01
          0                 4           2             4    7     1      -0.1324751615E-02       5    6    1        -0.7526069233E-01      0.1858266911E+00
          0                 5           1             4    7     1       0.1633475151E-04       5    6    1         0.9527142797E-03      0.2525224433E-02

    ------------------------------------------------
       NWT REQUIRED            5 OUTER ITERATIONS 
       AND A TOTAL OF          9 INNER ITERATIONS.
    ------------------------------------------------

 NO OUTPUT CONTROL FOR STRESS PERIOD   21   TIME STEP   30



 STREAM LISTING     PERIOD     21   STEP       30

 LAYER ROW COL. STREAM  RCH.  FLOW INTO     FLOW TO   FLOW OUT OF   OVRLND.     DIRECT     STREAM       STREAM     STREAM     STREAM   STREAMBED  STREAMBED
                SEG.NO.  NO.  STRM. RCH.    AQUIFER    STRM. RCH.    RUNOFF     PRECIP       ET          HEAD       DEPTH      WIDTH   CONDCTNC.   GRADIENT

   1    1    1     1     1    2.7750E+01  2.5751E-01   2.7493E+01  0.000E+00  0.000E+00  0.000E+00  1.09427E+03  1.218E+00  1.357E+01  6.105E-02  1.406E+00
   1    2    2     1     2    2.7493E+01  3.9833E-01   2.7095E+01  0.000E+00  0.000E+00  0.000E+00  1.08927E+03  1.213E+00  1.351E+01  9.454E-02  1.404E+00
   1    3    3     1     3    2.7095E+01  3.3924E-01   2.6755E+01  0.000E+00  0.000E+00  0.000E+00  1.08363E+03  1.208E+00  1.344E+01  8.062E-02  1.403E+00
   1    3    4     1     4    2.6755E+01  3.1201E-01   2.6443E+01  0.000E+00  0.000E+00  0.000E+00  1.07861E+03  1.203E+00  1.337E+01  7.423E-02  1.401E+00
   1    4    5     2     1    2.4443E+01  3.2655E-01   2.4117E+01  0.000E+00  0.000E+00  0.000E+00  1.07312E+03  1.187E+00  1.200E+01  7.800E-02  1.396E+00
   1    5    6     2     2    2.4117E+01  2.5069E-01   2.3866E+01  0.000E+00  0.000E+00  0.000E+00  1.06769E+03  1.178E+00  1.200E+01  6.000E-02  1.393E+00
   1    6    6     2     3    2.3866E+01  2.5024E-01   2.3616E+01  0.000E+00  0.000E+00  0.000E+00  1.06296E+03  1.171E+00  1.200E+01  6.000E-02  1.390E+00
   1    7    6     2     4    2.3616E+01  2.4980E-01   2.3366E+01  0.000E+00  0.000E+00  0.000E+00  1.05824E+03  1.163E+00  1.200E+01  6.000E-02  1.388E+00
   1    8    6     2     5    2.3366E+01  2.4935E-01   2.3117E+01  0.000E+00  0.000E+00  0.000E+00  1.05351E+03  1.156E+00  1.200E+01  6.000E-02  1.385E+00
   1    3    5     3     1    2.0000E+00  2.8252E-01   1.7175E+00  0.000E+00  0.000E+00  0.000E+00  1.07555E+03  1.909E+00  9.636E+00  7.227E-02  1.955E+00
   1    3    6     3     2    1.7175E+00  2.4905E-01   1.4684E+00  0.000E+00  0.000E+00  0.000E+00  1.07264E+03  1.727E+00  8.909E+00  6.682E-02  1.864E+00
   1    3    7     3     3    1.4684E+00  1.9718E-01   1.2712E+00  0.000E+00  0.000E+00  0.000E+00  1.06987E+03  1.555E+00  8.218E+00  5.547E-02  1.777E+00
   1    4    8     3     4    1.2712E+00  2.2567E-01   1.0456E+00  0.000E+00  0.000E+00  0.000E+00  1.06682E+03  1.364E+00  7.455E+00  6.709E-02  1.682E+00
   1    5    8     3     5    1.0456E+00  1.5790E-01   8.8768E-01  0.000E+00  0.000E+00  0.000E+00  1.06362E+03  1.164E+00  6.655E+00  4.991E-02  1.582E+00
   1    6    8     3     6    8.8768E-01  5.5980E-02   8.3170E-01  0.000E+00  0.000E+00  0.000E+00  1.06158E+03  1.036E+00  6.145E+00  1.844E-02  1.518E+00
   1    5   10     4     1    1.0000E+01  9.0919E-02   9.9091E+00  0.000E+00  0.000E+00  0.000E+00  1.07836E+03  6.368E-01  1.000E+01  2.500E-02  1.212E+00
   1    5    9     4     2    9.9091E+00  1.8158E-01   9.7275E+00  0.000E+00  0.000E+00  0.000E+00  1.07154E+03  6.315E-01  1.000E+01  5.000E-02  1.211E+00
   1    6    8     4     3    9.7275E+00  1.2689E-01   9.6006E+00  0.000E+00  0.000E+00  0.000E+00  1.06381E+03  6.256E-01  1.000E+01  3.500E-02  1.209E+00
   1    6    8     5     1    1.0432E+01  2.2686E-01   1.0205E+01  0.000E+00  0.000E+00  0.000E+00  1.05868E+03  6.790E-01  1.542E+01  6.166E-02  1.226E+00
   1    7    7     5     2    1.0205E+01  2.7894E-01   9.9265E+00  0.000E+00  0.000E+00  0.000E+00  1.05417E+03  6.732E-01  1.519E+01  7.594E-02  1.224E+00
   1    8    7     5     3    9.9265E+00  1.9221E-01   9.7343E+00  0.000E+00  0.000E+00  0.000E+00  1.04992E+03  6.676E-01  1.497E+01  5.241E-02  1.223E+00
   1    8    6     5     4    9.7343E+00  1.3577E-01   9.5985E+00  0.000E+00  0.000E+00  0.000E+00  1.04691E+03  6.637E-01  1.482E+01  3.706E-02  1.221E+00
   1    9    6     6     1    9.5985E+00  2.2097E-01   9.3776E+00  0.000E+00  0.000E+00  0.000E+00  1.04341E+03  6.828E-01  1.200E+01  6.000E-02  1.228E+00
   1   10    7     6     2    9.3776E+00  2.2039E-01   9.1572E+00  0.000E+00  0.000E+00  0.000E+00  1.03885E+03  6.732E-01  1.200E+01  6.000E-02  1.224E+00
   1   11    7     6     3    9.1572E+00  2.1981E-01   8.9374E+00  0.000E+00  0.000E+00  0.000E+00  1.03430E+03  6.636E-01  1.200E+01  6.000E-02  1.221E+00
   1   12    7     6     4    8.9374E+00  2.1923E-01   8.7181E+00  0.000E+00  0.000E+00  0.000E+00  1.02974E+03  6.539E-01  1.200E+01  6.000E-02  1.218E+00
   1   13    7     6     5    8.7181E+00 -1.1246E-01   8.8306E+00  0.000E+00  0.000E+00  0.000E+00  1.02656E+03  6.515E-01  1.200E+01  2.400E-01 -1.562E-01
   1   14    9     7     1    1.5000E+02  1.3375E+00   1.4866E+02  0.000E+00  0.000E+00  0.000E+00  1.03987E+03  2.288E+00  5.529E+01  5.593E-01  7.971E-01
   1   13    8     7     2    1.4866E+02  1.8381E+00   1.4682E+02  0.000E+00  0.000E+00  0.000E+00  1.03478E+03  2.279E+00  5.526E+01  6.148E-01  9.966E-01
   1   13    7     7     3    1.4682E+02  1.4858E+00   1.4534E+02  0.000E+00  0.000E+00  0.000E+00  1.02969E+03  2.270E+00  5.522E+01  5.584E-01  8.869E-01
   1   13    6     8     1    1.5417E+02  8.4153E-01   1.5333E+02  0.000E+00  0.000E+00  0.000E+00  1.02472E+03  2.843E+00  4.122E+01  4.201E-01  6.677E-01
   1   13    5     8     2    1.5333E+02  1.1726E-01   1.5321E+02  0.000E+00  0.000E+00  0.000E+00  1.01846E+03  2.840E+00  4.118E+01  4.196E-01  9.316E-02
   1   13    4     8     3    1.5321E+02 -2.6039E+00   1.5581E+02  0.000E+00  0.000E+00  0.000E+00  1.01222E+03  2.848E+00  4.130E+01  4.209E+00 -2.062E-01
   1   13    3     8     4    1.5581E+02 -3.7248E+00   1.5954E+02  0.000E+00  0.000E+00  0.000E+00  1.00600E+03  2.870E+00  4.162E+01  4.241E+00 -2.928E-01
   1   13    2     8     5    1.5954E+02 -2.6080E+00   1.6215E+02  0.000E+00  0.000E+00  0.000E+00  9.99767E+02  2.892E+00  4.193E+01  4.273E+00 -2.035E-01
   1   13    1     8     6    1.6215E+02 -2.0013E+00   1.6415E+02  0.000E+00  0.000E+00  0.000E+00  9.94782E+02  2.907E+00  4.215E+01  2.577E+00 -2.588E-01
   1    8    6     9     1    2.3117E+01  0.0000E+00   2.3117E+01  0.000E+00  0.000E+00  0.000E+00  1.08250E+03  3.747E+00  4.000E+00  0.000E+00  2.249E+00
   1    8    5     9     2    2.3117E+01  0.0000E+00   2.3117E+01  0.000E+00  0.000E+00  0.000E+00  1.08200E+03  3.747E+00  4.000E+00  0.000E+00  2.249E+00





UNSATURATED ZONE PACKAGE VOLUMETRIC BUDGET FOR  TIME STEP    30 STRESS PERIOD   21
  ------------------------------------------------------------------------------



     CUMULATIVE VOLUMES      L**3       RATES FOR THIS TIME STEP      L**3/T
     ------------------                 ------------------------

           IN:                                      IN:
           ---                                      ---
        INFILTRATION =   998156631.1437          INFILTRATION =          27.1438

          OUT:                                     OUT:
          ----                                     ----
              UZF ET =   823029410.6830                UZF ET =          49.6308
        UZF RECHARGE =       73224.0000          UZF RECHARGE =       0.0000E+00

            IN - OUT =   175053996.4607              IN - OUT =         -22.4869

          STORAGE:                                 STORAGE:
          --------                                 --------
      STORAGE CHANGE =   175054477.2071        STORAGE CHANGE =         -22.4869

 PERCENT DISCREPANCY IS DIFFERENCE BETWEEN IN-OUT MINUS CHANGE IN STORAGE
 DIVIDED BY THE AVERAGE OF IN AND OUT TIMES 100

 PERCENT DISCREPANCY =          -0.00     PERCENT DISCREPANCY =           0.00






1
  VOLUMETRIC BUDGET FOR AGRICULTURAL FIELDS AT  END OF TIME STEP   30, STRESS PERIOD  21
  ------------------------------------------------------------------------------

     CUMULATIVE VOLUMES      L**3       RATES FOR THIS TIME STEP      L**3/T
     ------------------                 ------------------------

           IN:                                      IN:
           ---                                      ---
               AG WELLS  =   380446912.0000                 AG WELLS  =           3.1792
      DIVERSION SEGMENTS =   573049088.0000        DIVERSION SEGMENTS =          23.1167
           GW IRRIGATION =           0.0000             GW IRRIGATION =           0.0000
           SW IRRIGATION =           0.0000             SW IRRIGATION =           0.0000
        SYSTEM LOSSES GW =           0.0000          SYSTEM LOSSES GW =           0.0000
        SYSTEM LOSSES SW =           0.0000          SYSTEM LOSSES SW =           0.0000

                TOTAL IN =   953496000.0000                  TOTAL IN =          26.2959

          OUT:                                     OUT:
          ----                                     ----
               AG WELLS  =           0.0000                 AG WELLS  =           0.0000
      DIVERSION SEGMENTS =           0.0000        DIVERSION SEGMENTS =           0.0000
           GW IRRIGATION =   380446912.0000             GW IRRIGATION =           3.1792
           SW IRRIGATION =   573060864.0000             SW IRRIGATION =          23.1172
        SYSTEM LOSSES GW =           0.0000          SYSTEM LOSSES GW =           0.0000
        SYSTEM LOSSES SW =           0.0000          SYSTEM LOSSES SW =           0.0000

               TOTAL OUT =   953507776.0000                 TOTAL OUT =          26.2963

                IN - OUT =      -11776.0000                  IN - OUT =      -4.6158E-04

     PERCENT DISCREPANCY =          -0.00         PERCENT DISCREPANCY =          -0.00



1
  VOLUMETRIC BUDGET FOR ENTIRE MODEL AT END OF TIME STEP   30, STRESS PERIOD  21
  ------------------------------------------------------------------------------

     CUMULATIVE VOLUMES      L**3       RATES FOR THIS TIME STEP      L**3/T
     ------------------                 ------------------------

           IN:                                      IN:
           ---                                      ---
             STORAGE     =   528856352.0000               STORAGE     =          20.0333
       CONSTANT HEAD     =           0.0000         CONSTANT HEAD     =           0.0000
     HEAD DEP BOUNDS     =    15055996.0000       HEAD DEP BOUNDS     =           0.2859
      STREAM LEAKAGE     =   632722432.0000        STREAM LEAKAGE     =          11.5358
        UZF RECHARGE     =       73223.9531          UZF RECHARGE     =           0.0000
               GW ET     =           0.0000                 GW ET     =           0.0000
     SURFACE LEAKAGE     =           0.0000       SURFACE LEAKAGE     =           0.0000
           AG WELLS      =           0.0000             AG WELLS      =           0.0000

                TOTAL IN =  1176707968.0000                  TOTAL IN =          31.8550

          OUT:                                     OUT:
          ----                                     ----
             STORAGE     =   208339600.0000               STORAGE     =          17.3380
       CONSTANT HEAD     =           0.0000         CONSTANT HEAD     =           0.0000
     HEAD DEP BOUNDS     =    15334094.0000       HEAD DEP BOUNDS     =           0.2872
      STREAM LEAKAGE     =   570454272.0000        STREAM LEAKAGE     =          11.0505
        UZF RECHARGE     =           0.0000          UZF RECHARGE     =           0.0000
               GW ET     =     2141481.7500                 GW ET     =           0.0000
     SURFACE LEAKAGE     =           0.0000       SURFACE LEAKAGE     =           0.0000
           AG WELLS      =   380446912.0000             AG WELLS      =           3.1792

               TOTAL OUT =  1176716416.0000                 TOTAL OUT =          31.8549

                IN - OUT =       -8448.0000                  IN - OUT =       1.2589E-04

     PERCENT DISCREPANCY =          -0.00         PERCENT DISCREPANCY =           0.00






         TIME SUMMARY AT END OF TIME STEP   30 IN STRESS PERIOD   21
                    SECONDS     MINUTES      HOURS       DAYS        YEARS
                    -----------------------------------------------------------
   TIME STEP LENGTH  87667.      1461.1      24.352      1.0147     2.77799E-03
 STRESS PERIOD TIME 2.63000E+06  43833.      730.56      30.440     8.33397E-02
         TOTAL TIME 5.26866E+07 8.78110E+05  14635.      609.80      1.6695    
1
1
                            STRESS PERIOD NO.   22, LENGTH =   2630000.    
                            -----------------------------------------------

                              NUMBER OF TIME STEPS =    30

                               MULTIPLIER FOR DELT =     1.000

                            INITIAL TIME STEP SIZE =   87666.66    

 REUSING NON-PARAMETER GHB CELLS FROM LAST STRESS PERIOD

      2 GHB CELLS

 REUSING STREAM SEGMENT DATA FROM LAST STRESS PERIOD



            AREAL INFILTRATION RATE
 READING ON UNIT   19 WITH FORMAT: (FREE)              

            1           2           3           4           5           6           7           8           9          10
 ........................................................................................................................
   1   1.0000E-10  2.0000E-10   0.000       0.000       0.000       0.000       0.000       0.000       0.000       0.000    
   2   2.0000E-10  1.0000E-10  2.0000E-10   0.000       0.000      8.0000E-10  8.0000E-10  5.0000E-10   0.000       0.000    
   3    0.000      5.0000E-10  1.0000E-10  1.0000E-10  8.0000E-10  8.0000E-10  5.0000E-10  5.0000E-10   0.000       0.000    
   4   8.0000E-10  5.0000E-10  1.0000E-10  1.0000E-10  1.0000E-10  1.0000E-10  1.0000E-10  1.0000E-10  2.0000E-10   0.000    
   5   8.0000E-10  5.0000E-10  1.0000E-10  1.0000E-10  1.0000E-10  1.0000E-10  1.0000E-10  1.0000E-10  1.0000E-10  1.0000E-10
   6   8.0000E-10  5.0000E-10  5.0000E-10  2.0000E-10  2.0000E-10  1.0000E-10  1.0000E-10  1.0000E-10  1.0000E-10  5.0000E-10
   7   8.0000E-10  5.0000E-10  5.0000E-10  2.0000E-10  2.0000E-10  1.0000E-10  1.0000E-10  2.0000E-10  2.0000E-10   0.000    
   8    0.000      5.0000E-10  5.0000E-10  2.0000E-10  2.0000E-10  1.0000E-10  1.0000E-10  2.0000E-10  5.0000E-10   0.000    
   9    0.000      5.0000E-10  5.0000E-10  2.0000E-10  2.0000E-10  1.0000E-10  1.0000E-10  2.0000E-10  5.0000E-10   0.000    
  10    0.000      5.0000E-10  5.0000E-10  2.0000E-10  2.0000E-10  1.0000E-10  1.0000E-10  2.0000E-10  5.0000E-10  8.0000E-10
  11    0.000      1.0000E-10  1.0000E-10  1.0000E-10  1.0000E-10  1.0000E-10  1.0000E-10  2.0000E-10  5.0000E-10   0.000    
  12   1.0000E-10  1.0000E-10  1.0000E-10  1.0000E-10  1.0000E-10  1.0000E-10  1.0000E-10  1.0000E-10  2.0000E-10   0.000    
  13   1.0000E-10  1.0000E-10  2.0000E-10  2.0000E-10  2.0000E-10  2.0000E-10  2.0000E-10  1.0000E-10  1.0000E-10   0.000    
  14    0.000      2.0000E-10  5.0000E-10  5.0000E-10  5.0000E-10  5.0000E-10  5.0000E-10  2.0000E-10  1.0000E-10   0.000    
  15    0.000       0.000      8.0000E-10  8.0000E-10  8.0000E-10  8.0000E-10   0.000       0.000       0.000       0.000    

                  ET RATE =  7.500000E-08

 USING ET EXTINCTION DEPTH FROM PREVIOUS STRESS PERIOD. CURRENT PERIOD IS:      22

 USING EXTINCTION WATER CONTENT FROM PREVIOUS STRESS PERIOD. CURRENT PERIOD IS:      22

 USING AIR ENTRY PRESSURE FROM PREVIOUS STRESS PERIOD. CURRENT PERIOD IS:      22

 USING ROOT PRESSURE HEAD FROM PREVIOUS STRESS PERIOD. CURRENT PERIOD IS:      22

 USING ROOT ACTIVITY FROM PREVIOUS STRESS PERIOD. CURRENT PERIOD IS:      22

 PROCESSING AG STRESS PERIOD DATA

 READING AG STRESS PERIOD DATA

 READING IRRIGATION SEGMENT

 READING IRRIGATION WELL

 READING SUPPLEMENTAL WELL

 END PROCESSING AG STRESS PERIOD DATA OPTIONS
 
 SOLVING FOR HEAD 
                                                   Max.-Head-Change                         Max.-Flux-Residual
  Residual-Control   Outer-Iter.   Inner-Iter.     Column Row Layer    Maximum-Head-Change  Column Row Layer    Maximum-Flux-Residual          L2-NORM 
          0                 1           2             5    6     1       0.6545764783E-01       5    6    1         0.3536199355E+01      0.9093407062E+01
          0                 2           2             5    6     1      -0.8181026703E-02       5    6    1        -0.4533407136E+00      0.1137390653E+01
          0                 3           2             5    7     1       0.2277089250E-02       5    6    1         0.1281780717E+00      0.3128567491E+00
          0                 4           2             5    7     1      -0.1058222259E-03       5    6    1        -0.6114228638E-02      0.1490899939E-01
          0                 5           1             4    7     1      -0.1948240405E-04       4    7    1        -0.1104815186E-02      0.2883968886E-02

    ------------------------------------------------
       NWT REQUIRED            5 OUTER ITERATIONS 
       AND A TOTAL OF          9 INNER ITERATIONS.
    ------------------------------------------------

 NO OUTPUT CONTROL FOR STRESS PERIOD   22   TIME STEP    1
 
 SOLVING FOR HEAD 
                                                   Max.-Head-Change                         Max.-Flux-Residual
  Residual-Control   Outer-Iter.   Inner-Iter.     Column Row Layer    Maximum-Head-Change  Column Row Layer    Maximum-Flux-Residual          L2-NORM 
          0                 1           2             5    6     1       0.6302142258E-01       5    6    1         0.3402099055E+01      0.8830420822E+01
          0                 2           2             4    7     1      -0.4063302550E-01       5    6    1        -0.2210205764E+01      0.5419360060E+01
          0                 3           2             4    7     1       0.1248972689E-01       5    6    1         0.6911248268E+00      0.1696608912E+01
          0                 4           2             4    7     1      -0.4969787771E-03       5    6    1        -0.2826449810E-01      0.6979367544E-01
          0                 5           1             4    7     1       0.6127962020E-05       5    6    1         0.3580226764E-03      0.9537129748E-03

    ------------------------------------------------
       NWT REQUIRED            5 OUTER ITERATIONS 
       AND A TOTAL OF          9 INNER ITERATIONS.
    ------------------------------------------------

 NO OUTPUT CONTROL FOR STRESS PERIOD   22   TIME STEP    2
 
 SOLVING FOR HEAD 
                                                   Max.-Head-Change                         Max.-Flux-Residual
  Residual-Control   Outer-Iter.   Inner-Iter.     Column Row Layer    Maximum-Head-Change  Column Row Layer    Maximum-Flux-Residual          L2-NORM 
          0                 1           2             5    7     1       0.6150004233E-01       5    6    1         0.3312956711E+01      0.8656821979E+01
          0                 2           2             5    7     1      -0.5982248656E-02       5    6    1        -0.3312917454E+00      0.8657040363E+00
          0                 3           2             5    7     1       0.4073692341E-03       5    6    1         0.2319046934E-01      0.6059232704E-01
          0                 4           1             5    7     1      -0.1620960647E-04       5    6    1        -0.9484913430E-03      0.2477788600E-02

    ------------------------------------------------
       NWT REQUIRED            4 OUTER ITERATIONS 
       AND A TOTAL OF          7 INNER ITERATIONS.
    ------------------------------------------------

 NO OUTPUT CONTROL FOR STRESS PERIOD   22   TIME STEP    3
 
 SOLVING FOR HEAD 
                                                   Max.-Head-Change                         Max.-Flux-Residual
  Residual-Control   Outer-Iter.   Inner-Iter.     Column Row Layer    Maximum-Head-Change  Column Row Layer    Maximum-Flux-Residual          L2-NORM 
          0                 1           2             5    7     1       0.6025887315E-01       5    7    1         0.3196243742E+01      0.8417101878E+01
          0                 2           2             4    7     1      -0.4058141712E-01       5    7    1        -0.2189622897E+01      0.5383948100E+01
          0                 3           2             4    7     1       0.1248621413E-01       5    7    1         0.6896838046E+00      0.1694250855E+01
          0                 4           2             4    7     1      -0.4968390163E-03       5    7    1        -0.2820701880E-01      0.6969779560E-01
          0                 5           1             4    7     1       0.6126239344E-05       5    7    1         0.3573924421E-03      0.9531315701E-03

    ------------------------------------------------
       NWT REQUIRED            5 OUTER ITERATIONS 
       AND A TOTAL OF          9 INNER ITERATIONS.
    ------------------------------------------------

 NO OUTPUT CONTROL FOR STRESS PERIOD   22   TIME STEP    4
 
 SOLVING FOR HEAD 
                                                   Max.-Head-Change                         Max.-Flux-Residual
  Residual-Control   Outer-Iter.   Inner-Iter.     Column Row Layer    Maximum-Head-Change  Column Row Layer    Maximum-Flux-Residual          L2-NORM 
          0                 1           2             5    7     1       0.5941258745E-01       5    7    1         0.3151351579E+01      0.8263129174E+01
          0                 2           2             5    7     1      -0.5779205802E-02       5    7    1        -0.3151339202E+00      0.8263452597E+00
          0                 3           2             5    7     1       0.3935426747E-03       5    7    1         0.2205939565E-01      0.5783778937E-01
          0                 4           1             5    7     1      -0.1565943550E-04       5    7    1        -0.9022304903E-03      0.2365237118E-02

    ------------------------------------------------
       NWT REQUIRED            4 OUTER ITERATIONS 
       AND A TOTAL OF          7 INNER ITERATIONS.
    ------------------------------------------------

 NO OUTPUT CONTROL FOR STRESS PERIOD   22   TIME STEP    5
 
 SOLVING FOR HEAD 
                                                   Max.-Head-Change                         Max.-Flux-Residual
  Residual-Control   Outer-Iter.   Inner-Iter.     Column Row Layer    Maximum-Head-Change  Column Row Layer    Maximum-Flux-Residual          L2-NORM 
          0                 1           2             4    7     1       0.5834169889E-01       5    7    1         0.3087757380E+01      0.8043001831E+01
          0                 2           2             4    7     1      -0.4051754379E-01       5    7    1        -0.2178774829E+01      0.5351403755E+01
          0                 3           2             4    7     1       0.1248186328E-01       5    7    1         0.6889244145E+00      0.1692070775E+01
          0                 4           2             4    7     1      -0.4966659040E-03       5    7    1        -0.2817561017E-01      0.6960910744E-01
          0                 5           1             4    7     1       0.6124104341E-05       5    7    1         0.3569706191E-03      0.9521407764E-03

    ------------------------------------------------
       NWT REQUIRED            5 OUTER ITERATIONS 
       AND A TOTAL OF          9 INNER ITERATIONS.
    ------------------------------------------------

 NO OUTPUT CONTROL FOR STRESS PERIOD   22   TIME STEP    6
 
 SOLVING FOR HEAD 
                                                   Max.-Head-Change                         Max.-Flux-Residual
  Residual-Control   Outer-Iter.   Inner-Iter.     Column Row Layer    Maximum-Head-Change  Column Row Layer    Maximum-Flux-Residual          L2-NORM 
          0                 1           2             4    7     1       0.5803710336E-01       5    7    1         0.3044911433E+01      0.7905948155E+01
          0                 2           2             4    7     1      -0.5645430042E-02       5    7    1        -0.3044904115E+00      0.7906354460E+00
          0                 3           2             4    7     1       0.3844328330E-03       5    7    1         0.2131434494E-01      0.5533859494E-01
          0                 4           1             4    7     1      -0.1529694198E-04       5    7    1        -0.8717579030E-03      0.2263103817E-02

    ------------------------------------------------
       NWT REQUIRED            4 OUTER ITERATIONS 
       AND A TOTAL OF          7 INNER ITERATIONS.
    ------------------------------------------------

 NO OUTPUT CONTROL FOR STRESS PERIOD   22   TIME STEP    7
 
 SOLVING FOR HEAD 
                                                   Max.-Head-Change                         Max.-Flux-Residual
  Residual-Control   Outer-Iter.   Inner-Iter.     Column Row Layer    Maximum-Head-Change  Column Row Layer    Maximum-Flux-Residual          L2-NORM 
          0                 1           2             4    7     1       0.5758094957E-01       4    7    1         0.3015500671E+01      0.7702909417E+01
          0                 2           2             4    7     1      -0.4044353894E-01       4    7    1        -0.2171550602E+01      0.5321406034E+01
          0                 3           2             4    7     1       0.1247682003E-01       4    7    1         0.6884186102E+00      0.1690050934E+01
          0                 4           2             4    7     1      -0.4964652391E-03       4    7    1        -0.2815641622E-01      0.6952742051E-01
          0                 5           1             4    7     1       0.6121629933E-05       4    7    1         0.3568284906E-03      0.9516299602E-03

    ------------------------------------------------
       NWT REQUIRED            5 OUTER ITERATIONS 
       AND A TOTAL OF          9 INNER ITERATIONS.
    ------------------------------------------------

 NO OUTPUT CONTROL FOR STRESS PERIOD   22   TIME STEP    8
 
 SOLVING FOR HEAD 
                                                   Max.-Head-Change                         Max.-Flux-Residual
  Residual-Control   Outer-Iter.   Inner-Iter.     Column Row Layer    Maximum-Head-Change  Column Row Layer    Maximum-Flux-Residual          L2-NORM 
          0                 1           2             4    7     1       0.5723161209E-01       4    7    1         0.2998141196E+01      0.7580486878E+01
          0                 2           2             4    7     1      -0.5567084578E-02       4    7    1        -0.2998148125E+00      0.7580967681E+00
          0                 3           2             4    7     1       0.3790977300E-03       4    7    1         0.2098703939E-01      0.5306094826E-01
          0                 4           1             4    7     1      -0.1508465359E-04       4    7    1        -0.8583711394E-03      0.2169636969E-02

    ------------------------------------------------
       NWT REQUIRED            4 OUTER ITERATIONS 
       AND A TOTAL OF          7 INNER ITERATIONS.
    ------------------------------------------------

 NO OUTPUT CONTROL FOR STRESS PERIOD   22   TIME STEP    9
 
 SOLVING FOR HEAD 
                                                   Max.-Head-Change                         Max.-Flux-Residual
  Residual-Control   Outer-Iter.   Inner-Iter.     Column Row Layer    Maximum-Head-Change  Column Row Layer    Maximum-Flux-Residual          L2-NORM 
          0                 1           2             4    7     1       0.5673547459E-01       4    7    1         0.2973656925E+01      0.7392403010E+01
          0                 2           2             4    7     1      -0.4036128337E-01       4    7    1        -0.2167366633E+01      0.5293677773E+01
          0                 3           2             4    7     1       0.1247121285E-01       4    7    1         0.6881257057E+00      0.1688175444E+01
          0                 4           2             4    7     1      -0.4962421325E-03       4    7    1        -0.2814443696E-01      0.6945116896E-01
          0                 5           1             4    7     1       0.6118879073E-05       4    7    1         0.3566766709E-03      0.9505010614E-03

    ------------------------------------------------
       NWT REQUIRED            5 OUTER ITERATIONS 
       AND A TOTAL OF          9 INNER ITERATIONS.
    ------------------------------------------------

 NO OUTPUT CONTROL FOR STRESS PERIOD   22   TIME STEP   10
 
 SOLVING FOR HEAD 
                                                   Max.-Head-Change                         Max.-Flux-Residual
  Residual-Control   Outer-Iter.   Inner-Iter.     Column Row Layer    Maximum-Head-Change  Column Row Layer    Maximum-Flux-Residual          L2-NORM 
          0                 1           2             4    7     1       0.5635034832E-01       4    7    1         0.2954217229E+01      0.7282737921E+01
          0                 2           2             4    7     1      -0.5481367136E-02       4    7    1        -0.2954227807E+00      0.7283283944E+00
          0                 3           2             4    7     1       0.3732606361E-03       4    7    1         0.2067959356E-01      0.5097785948E-01
          0                 4           1             4    7     1      -0.1485239045E-04       4    7    1        -0.8457966064E-03      0.2084809569E-02

    ------------------------------------------------
       NWT REQUIRED            4 OUTER ITERATIONS 
       AND A TOTAL OF          7 INNER ITERATIONS.
    ------------------------------------------------

 NO OUTPUT CONTROL FOR STRESS PERIOD   22   TIME STEP   11
 
 SOLVING FOR HEAD 
                                                   Max.-Head-Change                         Max.-Flux-Residual
  Residual-Control   Outer-Iter.   Inner-Iter.     Column Row Layer    Maximum-Head-Change  Column Row Layer    Maximum-Flux-Residual          L2-NORM 
          0                 1           2             4    7     1       0.5582219406E-01       4    7    1         0.2927862501E+01      0.7107802982E+01
          0                 2           2             4    7     1      -0.4027242439E-01       4    7    1        -0.2162787513E+01      0.5267983447E+01
          0                 3           2             4    7     1       0.1246515423E-01       4    7    1         0.6878051451E+00      0.1686430855E+01
          0                 4           2             4    7     1      -0.4960010620E-03       4    7    1        -0.2813132648E-01      0.6938068531E-01
          0                 5           1             4    7     1       0.6115906983E-05       4    7    1         0.3565105396E-03      0.9502085253E-03

    ------------------------------------------------
       NWT REQUIRED            5 OUTER ITERATIONS 
       AND A TOTAL OF          9 INNER ITERATIONS.
    ------------------------------------------------

 NO OUTPUT CONTROL FOR STRESS PERIOD   22   TIME STEP   12
 
 SOLVING FOR HEAD 
                                                   Max.-Head-Change                         Max.-Flux-Residual
  Residual-Control   Outer-Iter.   Inner-Iter.     Column Row Layer    Maximum-Head-Change  Column Row Layer    Maximum-Flux-Residual          L2-NORM 
          0                 1           2             4    7     1       0.5540885904E-01       4    7    1         0.2906763234E+01      0.7009280581E+01
          0                 2           2             4    7     1      -0.5389790224E-02       4    7    1        -0.2906776681E+00      0.7009885885E+00
          0                 3           2             4    7     1       0.3670245456E-03       4    7    1         0.2034743283E-01      0.4906421562E-01
          0                 4           1             4    7     1      -0.1460425064E-04       4    7    1        -0.8322112208E-03      0.2006405796E-02

    ------------------------------------------------
       NWT REQUIRED            4 OUTER ITERATIONS 
       AND A TOTAL OF          7 INNER ITERATIONS.
    ------------------------------------------------

 NO OUTPUT CONTROL FOR STRESS PERIOD   22   TIME STEP   13
 
 SOLVING FOR HEAD 
                                                   Max.-Head-Change                         Max.-Flux-Residual
  Residual-Control   Outer-Iter.   Inner-Iter.     Column Row Layer    Maximum-Head-Change  Column Row Layer    Maximum-Flux-Residual          L2-NORM 
          0                 1           2             4    7     1       0.5485602124E-01       4    7    1         0.2878945425E+01      0.6845966738E+01
          0                 2           2             4    7     1      -0.4017841393E-01       4    7    1        -0.2157896056E+01      0.5244117029E+01
          0                 3           2             4    7     1       0.1245874334E-01       4    7    1         0.6874627251E+00      0.1684804928E+01
          0                 4           2             4    7     1      -0.4957459724E-03       4    7    1        -0.2811732184E-01      0.6931488908E-01
          0                 5           1             4    7     1       0.6112761159E-05       4    7    1         0.3563330420E-03      0.9498034199E-03

    ------------------------------------------------
       NWT REQUIRED            5 OUTER ITERATIONS 
       AND A TOTAL OF          9 INNER ITERATIONS.
    ------------------------------------------------

 NO OUTPUT CONTROL FOR STRESS PERIOD   22   TIME STEP   14
 
 SOLVING FOR HEAD 
                                                   Max.-Head-Change                         Max.-Flux-Residual
  Residual-Control   Outer-Iter.   Inner-Iter.     Column Row Layer    Maximum-Head-Change  Column Row Layer    Maximum-Flux-Residual          L2-NORM 
          0                 1           2             4    7     1       0.5442130952E-01       4    7    1         0.2856567025E+01      0.6757234444E+01
          0                 2           2             4    7     1      -0.5293731925E-02       4    7    1        -0.2856582686E+00      0.6757891724E+00
          0                 3           2             4    7     1       0.3604832990E-03       4    7    1         0.1999607263E-01      0.4730038264E-01
          0                 4           1             4    7     1      -0.1434396820E-04       4    7    1        -0.8178405635E-03      0.1934303395E-02

    ------------------------------------------------
       NWT REQUIRED            4 OUTER ITERATIONS 
       AND A TOTAL OF          7 INNER ITERATIONS.
    ------------------------------------------------

 NO OUTPUT CONTROL FOR STRESS PERIOD   22   TIME STEP   15
 
 SOLVING FOR HEAD 
                                                   Max.-Head-Change                         Max.-Flux-Residual
  Residual-Control   Outer-Iter.   Inner-Iter.     Column Row Layer    Maximum-Head-Change  Column Row Layer    Maximum-Flux-Residual          L2-NORM 
          0                 1           2             4    7     1       0.5385001145E-01       4    7    1         0.2827632830E+01      0.6604226095E+01
          0                 2           2             4    7     1      -0.4008052305E-01       4    7    1        -0.2152764987E+01      0.5221899115E+01
          0                 3           2             4    7     1       0.1245206701E-01       4    7    1         0.6871035358E+00      0.1683286775E+01
          0                 4           2             4    7     1      -0.4954803197E-03       4    7    1        -0.2810263129E-01      0.6925347890E-01
          0                 5           1             4    7     1       0.6109485845E-05       4    7    1         0.3561468727E-03      0.9491710020E-03

    ------------------------------------------------
       NWT REQUIRED            5 OUTER ITERATIONS 
       AND A TOTAL OF          9 INNER ITERATIONS.
    ------------------------------------------------

 NO OUTPUT CONTROL FOR STRESS PERIOD   22   TIME STEP   16
 
 SOLVING FOR HEAD 
                                                   Max.-Head-Change                         Max.-Flux-Residual
  Residual-Control   Outer-Iter.   Inner-Iter.     Column Row Layer    Maximum-Head-Change  Column Row Layer    Maximum-Flux-Residual          L2-NORM 
          0                 1           2             4    7     1       0.5339971096E-01       4    7    1         0.2804298148E+01      0.6524134666E+01
          0                 2           2             4    7     1      -0.5194360760E-02       4    7    1        -0.2804315473E+00      0.6524840571E+00
          0                 3           2             4    7     1       0.3537164664E-03       4    7    1         0.1963020040E-01      0.4566921900E-01
          0                 4           1             4    7     1      -0.1407471030E-04       4    7    1        -0.8028763975E-03      0.1867572286E-02

    ------------------------------------------------
       NWT REQUIRED            4 OUTER ITERATIONS 
       AND A TOTAL OF          7 INNER ITERATIONS.
    ------------------------------------------------

 NO OUTPUT CONTROL FOR STRESS PERIOD   22   TIME STEP   17
 
 SOLVING FOR HEAD 
                                                   Max.-Head-Change                         Max.-Flux-Residual
  Residual-Control   Outer-Iter.   Inner-Iter.     Column Row Layer    Maximum-Head-Change  Column Row Layer    Maximum-Flux-Residual          L2-NORM 
          0                 1           2             4    7     1       0.5281544985E-01       4    7    1         0.2774554793E+01      0.6380312808E+01
          0                 2           2             4    7     1      -0.3997985047E-01       4    7    1        -0.2147457323E+01      0.5201173842E+01
          0                 3           2             4    7     1       0.1244520027E-01       4    7    1         0.6867319879E+00      0.1681866071E+01
          0                 4           2             4    7     1      -0.4952070893E-03       4    7    1        -0.2808743520E-01      0.6919608966E-01
          0                 5           1             4    7     1       0.6106116551E-05       4    7    1         0.3559542806E-03      0.9479750870E-03

    ------------------------------------------------
       NWT REQUIRED            5 OUTER ITERATIONS 
       AND A TOTAL OF          9 INNER ITERATIONS.
    ------------------------------------------------

 NO OUTPUT CONTROL FOR STRESS PERIOD   22   TIME STEP   18
 
 SOLVING FOR HEAD 
                                                   Max.-Head-Change                         Max.-Flux-Residual
  Residual-Control   Outer-Iter.   Inner-Iter.     Column Row Layer    Maximum-Head-Change  Column Row Layer    Maximum-Flux-Residual          L2-NORM 
          0                 1           2             4    7     1       0.5235452701E-01       4    7    1         0.2750541689E+01      0.6307877259E+01
          0                 2           2             4    7     1      -0.5092694694E-02       4    7    1        -0.2750560220E+00      0.6308619514E+00
          0                 3           2             4    7     1       0.3467933662E-03       4    7    1         0.1925391231E-01      0.4415572947E-01
          0                 4           1             4    7     1      -0.1379923355E-04       4    7    1        -0.7874861926E-03      0.1805696908E-02

    ------------------------------------------------
       NWT REQUIRED            4 OUTER ITERATIONS 
       AND A TOTAL OF          7 INNER ITERATIONS.
    ------------------------------------------------

 NO OUTPUT CONTROL FOR STRESS PERIOD   22   TIME STEP   19
 
 SOLVING FOR HEAD 
                                                   Max.-Head-Change                         Max.-Flux-Residual
  Residual-Control   Outer-Iter.   Inner-Iter.     Column Row Layer    Maximum-Head-Change  Column Row Layer    Maximum-Flux-Residual          L2-NORM 
          0                 1           2             4    7     1       0.5176203735E-01       4    7    1         0.2720253841E+01      0.6172287638E+01
          0                 2           2             4    7     1      -0.3987734067E-01       4    7    1        -0.2142027327E+01      0.5181803925E+01
          0                 3           2             4    7     1       0.1243820763E-01       4    7    1         0.6863518794E+00      0.1680535146E+01
          0                 4           2             4    7     1      -0.4949288489E-03       4    7    1        -0.2807188516E-01      0.6914202357E-01
          0                 5           1             4    7     1       0.6102685760E-05       4    7    1         0.3557569610E-03      0.9478061390E-03

    ------------------------------------------------
       NWT REQUIRED            5 OUTER ITERATIONS 
       AND A TOTAL OF          9 INNER ITERATIONS.
    ------------------------------------------------

 NO OUTPUT CONTROL FOR STRESS PERIOD   22   TIME STEP   20
 
 SOLVING FOR HEAD 
                                                   Max.-Head-Change                         Max.-Flux-Residual
  Residual-Control   Outer-Iter.   Inner-Iter.     Column Row Layer    Maximum-Head-Change  Column Row Layer    Maximum-Flux-Residual          L2-NORM 
          0                 1           2             4    7     1       0.5129500234E-01       4    7    1         0.2695815236E+01      0.6106679797E+01
          0                 2           2             4    7     1      -0.4989633102E-02       4    7    1        -0.2695834594E+00      0.6107473280E+00
          0                 3           2             4    7     1       0.3397752415E-03       4    7    1         0.1887083198E-01      0.4274781758E-01
          0                 4           1             4    7     1      -0.1351997602E-04       4    7    1        -0.7718181953E-03      0.1748212276E-02

    ------------------------------------------------
       NWT REQUIRED            4 OUTER ITERATIONS 
       AND A TOTAL OF          7 INNER ITERATIONS.
    ------------------------------------------------

 NO OUTPUT CONTROL FOR STRESS PERIOD   22   TIME STEP   21
 
 SOLVING FOR HEAD 
                                                   Max.-Head-Change                         Max.-Flux-Residual
  Residual-Control   Outer-Iter.   Inner-Iter.     Column Row Layer    Maximum-Head-Change  Column Row Layer    Maximum-Flux-Residual          L2-NORM 
          0                 1           2             4    7     1       0.5069817624E-01       4    7    1         0.2665201979E+01      0.5978470796E+01
          0                 2           2             4    7     1      -0.3977381172E-01       4    7    1        -0.2136522206E+01      0.5163667594E+01
          0                 3           2             4    7     1       0.1243114499E-01       4    7    1         0.6859665144E+00      0.1679285921E+01
          0                 4           2             4    7     1      -0.4946478222E-03       4    7    1        -0.2805607568E-01      0.6909153441E-01
          0                 5           1             4    7     1       0.6099220693E-05       4    7    1         0.3555533417E-03      0.9472890306E-03

    ------------------------------------------------
       NWT REQUIRED            5 OUTER ITERATIONS 
       AND A TOTAL OF          9 INNER ITERATIONS.
    ------------------------------------------------

 NO OUTPUT CONTROL FOR STRESS PERIOD   22   TIME STEP   22
 
 SOLVING FOR HEAD 
                                                   Max.-Head-Change                         Max.-Flux-Residual
  Residual-Control   Outer-Iter.   Inner-Iter.     Column Row Layer    Maximum-Head-Change  Column Row Layer    Maximum-Flux-Residual          L2-NORM 
          0                 1           2             4    7     1       0.5022848714E-01       4    7    1         0.2640532451E+01      0.5918975259E+01
          0                 2           2             4    7     1      -0.4885891054E-02       4    7    1        -0.2640552323E+00      0.5919810137E+00
          0                 3           2             4    7     1       0.3327107847E-03       4    7    1         0.1848385544E-01      0.4143419020E-01
          0                 4           1             4    7     1      -0.1323887460E-04       4    7    1        -0.7559908290E-03      0.1694355348E-02

    ------------------------------------------------
       NWT REQUIRED            4 OUTER ITERATIONS 
       AND A TOTAL OF          7 INNER ITERATIONS.
    ------------------------------------------------

 NO OUTPUT CONTROL FOR STRESS PERIOD   22   TIME STEP   23
 
 SOLVING FOR HEAD 
                                                   Max.-Head-Change                         Max.-Flux-Residual
  Residual-Control   Outer-Iter.   Inner-Iter.     Column Row Layer    Maximum-Head-Change  Column Row Layer    Maximum-Flux-Residual          L2-NORM 
          0                 1           2             4    7     1       0.4963076651E-01       4    7    1         0.2609787622E+01      0.5797420410E+01
          0                 2           2             4    7     1      -0.3966993540E-01       4    7    1        -0.2130980807E+01      0.5146657288E+01
          0                 3           2             4    7     1       0.1242405823E-01       4    7    1         0.6855786120E+00      0.1678109017E+01
          0                 4           2             4    7     1      -0.4943658346E-03       4    7    1        -0.2804016465E-01      0.6904375193E-01
          0                 5           1             4    7     1       0.6095743417E-05       4    7    1         0.3553485760E-03      0.9471378949E-03

    ------------------------------------------------
       NWT REQUIRED            5 OUTER ITERATIONS 
       AND A TOTAL OF          9 INNER ITERATIONS.
    ------------------------------------------------

 NO OUTPUT CONTROL FOR STRESS PERIOD   22   TIME STEP   24
 
 SOLVING FOR HEAD 
                                                   Max.-Head-Change                         Max.-Flux-Residual
  Residual-Control   Outer-Iter.   Inner-Iter.     Column Row Layer    Maximum-Head-Change  Column Row Layer    Maximum-Flux-Residual          L2-NORM 
          0                 1           2             4    7     1       0.4916185046E-01       4    7    1         0.2585080356E+01      0.5743413040E+01
          0                 2           2             4    7     1      -0.4782136810E-02       4    7    1        -0.2585100488E+00      0.5744288905E+00
          0                 3           2             4    7     1       0.3256455015E-03       4    7    1         0.1809569220E-01      0.4020559738E-01
          0                 4           1             4    7     1      -0.1295774025E-04       4    7    1        -0.7401149273E-03      0.1644120187E-02

    ------------------------------------------------
       NWT REQUIRED            4 OUTER ITERATIONS 
       AND A TOTAL OF          7 INNER ITERATIONS.
    ------------------------------------------------

 NO OUTPUT CONTROL FOR STRESS PERIOD   22   TIME STEP   25
 
 SOLVING FOR HEAD 
                                                   Max.-Head-Change                         Max.-Flux-Residual
  Residual-Control   Outer-Iter.   Inner-Iter.     Column Row Layer    Maximum-Head-Change  Column Row Layer    Maximum-Flux-Residual          L2-NORM 
          0                 1           2             4    7     1       0.4856611896E-01       4    7    1         0.2554366924E+01      0.5627886313E+01
          0                 2           2             4    7     1      -0.3956632618E-01       4    7    1        -0.2125438750E+01      0.5130677972E+01
          0                 3           2             4    7     1       0.1241698932E-01       4    7    1         0.6851906651E+00      0.1677001155E+01
          0                 4           2             4    7     1      -0.4940845569E-03       4    7    1        -0.2802425398E-01      0.6899894815E-01
          0                 5           1             4    7     1       0.6092275325E-05       4    7    1         0.3551439765E-03      0.9464036131E-03

    ------------------------------------------------
       NWT REQUIRED            5 OUTER ITERATIONS 
       AND A TOTAL OF          9 INNER ITERATIONS.
    ------------------------------------------------

 NO OUTPUT CONTROL FOR STRESS PERIOD   22   TIME STEP   26
 
 SOLVING FOR HEAD 
                                                   Max.-Head-Change                         Max.-Flux-Residual
  Residual-Control   Outer-Iter.   Inner-Iter.     Column Row Layer    Maximum-Head-Change  Column Row Layer    Maximum-Flux-Residual          L2-NORM 
          0                 1           2             4    7     1       0.4810048308E-01       4    7    1         0.2529764175E+01      0.5578834191E+01
          0                 2           2             4    7     1      -0.4678894817E-02       4    7    1        -0.2529784360E+00      0.5579750129E+00
          0                 3           2             4    7     1       0.3186151032E-03       4    7    1         0.1770847905E-01      0.3905389372E-01
          0                 4           1             4    7     1      -0.1267799434E-04       4    7    1        -0.7242778975E-03      0.1597083319E-02

    ------------------------------------------------
       NWT REQUIRED            4 OUTER ITERATIONS 
       AND A TOTAL OF          7 INNER ITERATIONS.
    ------------------------------------------------

 NO OUTPUT CONTROL FOR STRESS PERIOD   22   TIME STEP   27
 
 SOLVING FOR HEAD 
                                                   Max.-Head-Change                         Max.-Flux-Residual
  Residual-Control   Outer-Iter.   Inner-Iter.     Column Row Layer    Maximum-Head-Change  Column Row Layer    Maximum-Flux-Residual          L2-NORM 
          0                 1           2             4    7     1       0.4750929145E-01       4    7    1         0.2499226716E+01      0.5468776084E+01
          0                 2           2             4    7     1      -0.3946347650E-01       4    7    1        -0.2119924725E+01      0.5115643979E+01
          0                 3           2             4    7     1       0.1240997191E-01       4    7    1         0.6848046819E+00      0.1675957593E+01
          0                 4           2             4    7     1      -0.4938053284E-03       4    7    1        -0.2800842575E-01      0.6895673450E-01
          0                 5           1             4    7     1       0.6088832325E-05       4    7    1         0.3549405671E-03      0.9466623087E-03

    ------------------------------------------------
       NWT REQUIRED            5 OUTER ITERATIONS 
       AND A TOTAL OF          9 INNER ITERATIONS.
    ------------------------------------------------

 NO OUTPUT CONTROL FOR STRESS PERIOD   22   TIME STEP   28
 
 SOLVING FOR HEAD 
                                                   Max.-Head-Change                         Max.-Flux-Residual
  Residual-Control   Outer-Iter.   Inner-Iter.     Column Row Layer    Maximum-Head-Change  Column Row Layer    Maximum-Flux-Residual          L2-NORM 
          0                 1           2             4    7     1       0.4704913377E-01       4    7    1         0.2474853458E+01      0.5424222639E+01
          0                 2           2             4    7     1      -0.4576627060E-02       4    7    1        -0.2474873529E+00      0.5425181670E+00
          0                 3           2             4    7     1       0.3116510494E-03       4    7    1         0.1732410319E-01      0.3797226472E-01
          0                 4           1             4    7     1      -0.1240088785E-04       4    7    1        -0.7085568902E-03      0.1552831847E-02

    ------------------------------------------------
       NWT REQUIRED            4 OUTER ITERATIONS 
       AND A TOTAL OF          7 INNER ITERATIONS.
    ------------------------------------------------

 NO OUTPUT CONTROL FOR STRESS PERIOD   22   TIME STEP   29
 
 SOLVING FOR HEAD 
                                                   Max.-Head-Change                         Max.-Flux-Residual
  Residual-Control   Outer-Iter.   Inner-Iter.     Column Row Layer    Maximum-Head-Change  Column Row Layer    Maximum-Flux-Residual          L2-NORM 
          0                 1           2             4    7     1       0.4646434077E-01       4    7    1         0.2444598566E+01      0.5318981775E+01
          0                 2           2             4    7     1      -0.3936178138E-01       4    7    1        -0.2114461890E+01      0.5101316478E+01
          0                 3           2             4    7     1       0.1117099968E-01       4    7    1         0.6164495039E+00      0.1508234049E+01
          0                 4           2             4    7     1      -0.4445052911E-03       4    7    1        -0.2521271888E-01      0.6208397909E-01
          0                 5           1             4    7     1       0.5480941925E-05       4    7    1         0.3195127131E-03      0.8571489697E-03

    ------------------------------------------------
       NWT REQUIRED            5 OUTER ITERATIONS 
       AND A TOTAL OF          9 INNER ITERATIONS.
    ------------------------------------------------

 NO OUTPUT CONTROL FOR STRESS PERIOD   22   TIME STEP   30



 STREAM LISTING     PERIOD     22   STEP       30

 LAYER ROW COL. STREAM  RCH.  FLOW INTO     FLOW TO   FLOW OUT OF   OVRLND.     DIRECT     STREAM       STREAM     STREAM     STREAM   STREAMBED  STREAMBED
                SEG.NO.  NO.  STRM. RCH.    AQUIFER    STRM. RCH.    RUNOFF     PRECIP       ET          HEAD       DEPTH      WIDTH   CONDCTNC.   GRADIENT

   1    1    1     1     1    1.8324E+01  2.0985E-01   1.8114E+01  0.000E+00  0.000E+00  0.000E+00  1.09412E+03  1.071E+00  1.146E+01  5.155E-02  1.357E+00
   1    2    2     1     2    1.8114E+01  3.2368E-01   1.7790E+01  0.000E+00  0.000E+00  0.000E+00  1.08912E+03  1.066E+00  1.137E+01  7.960E-02  1.355E+00
   1    3    3     1     3    1.7790E+01  2.7478E-01   1.7515E+01  0.000E+00  0.000E+00  0.000E+00  1.08348E+03  1.061E+00  1.128E+01  6.766E-02  1.354E+00
   1    3    4     1     4    1.7515E+01  2.5199E-01   1.7263E+01  0.000E+00  0.000E+00  0.000E+00  1.07846E+03  1.056E+00  1.119E+01  6.212E-02  1.352E+00
   1    4    5     2     1    1.5263E+01  3.0363E-01   1.4960E+01  0.000E+00  0.000E+00  0.000E+00  1.07283E+03  8.927E-01  1.200E+01  7.800E-02  1.298E+00
   1    5    6     2     2    1.4960E+01  2.3299E-01   1.4727E+01  0.000E+00  0.000E+00  0.000E+00  1.06739E+03  8.832E-01  1.200E+01  6.000E-02  1.294E+00
   1    6    6     2     3    1.4727E+01  2.3249E-01   1.4494E+01  0.000E+00  0.000E+00  0.000E+00  1.06267E+03  8.749E-01  1.200E+01  6.000E-02  1.292E+00
   1    7    6     2     4    1.4494E+01  2.3199E-01   1.4262E+01  0.000E+00  0.000E+00  0.000E+00  1.05794E+03  8.665E-01  1.200E+01  6.000E-02  1.289E+00
   1    8    6     2     5    1.4262E+01  2.3149E-01   1.4031E+01  0.000E+00  0.000E+00  0.000E+00  1.05322E+03  8.581E-01  1.200E+01  6.000E-02  1.286E+00
   1    3    5     3     1    2.0000E+00  2.8252E-01   1.7175E+00  0.000E+00  0.000E+00  0.000E+00  1.07555E+03  1.909E+00  9.636E+00  7.227E-02  1.955E+00
   1    3    6     3     2    1.7175E+00  2.4905E-01   1.4684E+00  0.000E+00  0.000E+00  0.000E+00  1.07264E+03  1.727E+00  8.909E+00  6.682E-02  1.864E+00
   1    3    7     3     3    1.4684E+00  1.9718E-01   1.2712E+00  0.000E+00  0.000E+00  0.000E+00  1.06987E+03  1.555E+00  8.218E+00  5.547E-02  1.777E+00
   1    4    8     3     4    1.2712E+00  2.2567E-01   1.0456E+00  0.000E+00  0.000E+00  0.000E+00  1.06682E+03  1.364E+00  7.455E+00  6.709E-02  1.682E+00
   1    5    8     3     5    1.0456E+00  1.5790E-01   8.8768E-01  0.000E+00  0.000E+00  0.000E+00  1.06362E+03  1.164E+00  6.655E+00  4.991E-02  1.582E+00
   1    6    8     3     6    8.8768E-01  5.5980E-02   8.3170E-01  0.000E+00  0.000E+00  0.000E+00  1.06158E+03  1.036E+00  6.145E+00  1.844E-02  1.518E+00
   1    5   10     4     1    1.0000E+01  9.0919E-02   9.9091E+00  0.000E+00  0.000E+00  0.000E+00  1.07836E+03  6.368E-01  1.000E+01  2.500E-02  1.212E+00
   1    5    9     4     2    9.9091E+00  1.8158E-01   9.7275E+00  0.000E+00  0.000E+00  0.000E+00  1.07154E+03  6.315E-01  1.000E+01  5.000E-02  1.211E+00
   1    6    8     4     3    9.7275E+00  1.2689E-01   9.6006E+00  0.000E+00  0.000E+00  0.000E+00  1.06381E+03  6.256E-01  1.000E+01  3.500E-02  1.209E+00
   1    6    8     5     1    1.0432E+01  2.2686E-01   1.0205E+01  0.000E+00  0.000E+00  0.000E+00  1.05868E+03  6.790E-01  1.542E+01  6.166E-02  1.226E+00
   1    7    7     5     2    1.0205E+01  2.7894E-01   9.9265E+00  0.000E+00  0.000E+00  0.000E+00  1.05417E+03  6.732E-01  1.519E+01  7.594E-02  1.224E+00
   1    8    7     5     3    9.9265E+00  1.9221E-01   9.7343E+00  0.000E+00  0.000E+00  0.000E+00  1.04992E+03  6.676E-01  1.497E+01  5.241E-02  1.223E+00
   1    8    6     5     4    9.7343E+00  1.3577E-01   9.5985E+00  0.000E+00  0.000E+00  0.000E+00  1.04691E+03  6.637E-01  1.482E+01  3.706E-02  1.221E+00
   1    9    6     6     1    9.5985E+00  2.2097E-01   9.3776E+00  0.000E+00  0.000E+00  0.000E+00  1.04341E+03  6.828E-01  1.200E+01  6.000E-02  1.228E+00
   1   10    7     6     2    9.3776E+00  2.2039E-01   9.1572E+00  0.000E+00  0.000E+00  0.000E+00  1.03885E+03  6.732E-01  1.200E+01  6.000E-02  1.224E+00
   1   11    7     6     3    9.1572E+00  2.1981E-01   8.9374E+00  0.000E+00  0.000E+00  0.000E+00  1.03430E+03  6.636E-01  1.200E+01  6.000E-02  1.221E+00
   1   12    7     6     4    8.9374E+00  2.1923E-01   8.7181E+00  0.000E+00  0.000E+00  0.000E+00  1.02974E+03  6.539E-01  1.200E+01  6.000E-02  1.218E+00
   1   13    7     6     5    8.7181E+00 -1.1293E-01   8.8311E+00  0.000E+00  0.000E+00  0.000E+00  1.02656E+03  6.515E-01  1.200E+01  2.400E-01 -1.569E-01
   1   14    9     7     1    1.5000E+02  1.3379E+00   1.4866E+02  0.000E+00  0.000E+00  0.000E+00  1.03987E+03  2.288E+00  5.529E+01  5.593E-01  7.974E-01
   1   13    8     7     2    1.4866E+02  1.8418E+00   1.4682E+02  0.000E+00  0.000E+00  0.000E+00  1.03478E+03  2.279E+00  5.526E+01  6.148E-01  9.986E-01
   1   13    7     7     3    1.4682E+02  1.4847E+00   1.4534E+02  0.000E+00  0.000E+00  0.000E+00  1.02969E+03  2.270E+00  5.522E+01  5.584E-01  8.862E-01
   1   13    6     8     1    1.5417E+02  8.4577E-01   1.5332E+02  0.000E+00  0.000E+00  0.000E+00  1.02472E+03  2.843E+00  4.122E+01  4.201E-01  6.711E-01
   1   13    5     8     2    1.5332E+02  1.2185E-01   1.5320E+02  0.000E+00  0.000E+00  0.000E+00  1.01846E+03  2.840E+00  4.117E+01  4.196E-01  9.680E-02
   1   13    4     8     3    1.5320E+02 -2.6800E+00   1.5588E+02  0.000E+00  0.000E+00  0.000E+00  1.01222E+03  2.849E+00  4.130E+01  4.209E+00 -2.122E-01
   1   13    3     8     4    1.5588E+02 -3.8139E+00   1.5969E+02  0.000E+00  0.000E+00  0.000E+00  1.00600E+03  2.871E+00  4.163E+01  4.242E+00 -2.997E-01
   1   13    2     8     5    1.5969E+02 -2.7195E+00   1.6241E+02  0.000E+00  0.000E+00  0.000E+00  9.99768E+02  2.893E+00  4.195E+01  4.275E+00 -2.121E-01
   1   13    1     8     6    1.6241E+02 -2.0467E+00   1.6446E+02  0.000E+00  0.000E+00  0.000E+00  9.94784E+02  2.909E+00  4.218E+01  2.579E+00 -2.645E-01
   1    8    6     9     1    1.4031E+01  0.0000E+00   1.4031E+01  0.000E+00  0.000E+00  0.000E+00  1.08153E+03  2.777E+00  4.000E+00  0.000E+00  1.926E+00
   1    8    5     9     2    1.4031E+01  0.0000E+00   1.4031E+01  0.000E+00  0.000E+00  0.000E+00  1.08103E+03  2.777E+00  4.000E+00  0.000E+00  1.926E+00





UNSATURATED ZONE PACKAGE VOLUMETRIC BUDGET FOR  TIME STEP    30 STRESS PERIOD   22
  ------------------------------------------------------------------------------



     CUMULATIVE VOLUMES      L**3       RATES FOR THIS TIME STEP      L**3/T
     ------------------                 ------------------------

           IN:                                      IN:
           ---                                      ---
        INFILTRATION =  1030006165.6512          INFILTRATION =          23.2878

          OUT:                                     OUT:
          ----                                     ----
              UZF ET =   854774511.7782                UZF ET =          12.0675
        UZF RECHARGE =       73224.0000          UZF RECHARGE =       0.0000E+00

            IN - OUT =   175158429.8730              IN - OUT =          11.2203

          STORAGE:                                 STORAGE:
          --------                                 --------
      STORAGE CHANGE =   175158897.0020        STORAGE CHANGE =          11.2203

 PERCENT DISCREPANCY IS DIFFERENCE BETWEEN IN-OUT MINUS CHANGE IN STORAGE
 DIVIDED BY THE AVERAGE OF IN AND OUT TIMES 100

 PERCENT DISCREPANCY =          -0.00     PERCENT DISCREPANCY =           0.00






1
  VOLUMETRIC BUDGET FOR AGRICULTURAL FIELDS AT  END OF TIME STEP   30, STRESS PERIOD  22
  ------------------------------------------------------------------------------

     CUMULATIVE VOLUMES      L**3       RATES FOR THIS TIME STEP      L**3/T
     ------------------                 ------------------------

           IN:                                      IN:
           ---                                      ---
               AG WELLS  =   391007552.0000                 AG WELLS  =           8.4094
      DIVERSION SEGMENTS =   592111808.0000        DIVERSION SEGMENTS =          14.0306
           GW IRRIGATION =           0.0000             GW IRRIGATION =           0.0000
           SW IRRIGATION =           0.0000             SW IRRIGATION =           0.0000
        SYSTEM LOSSES GW =           0.0000          SYSTEM LOSSES GW =           0.0000
        SYSTEM LOSSES SW =           0.0000          SYSTEM LOSSES SW =           0.0000

                TOTAL IN =   983119360.0000                  TOTAL IN =          22.4400

          OUT:                                     OUT:
          ----                                     ----
               AG WELLS  =           0.0000                 AG WELLS  =           0.0000
      DIVERSION SEGMENTS =           0.0000        DIVERSION SEGMENTS =           0.0000
           GW IRRIGATION =   391007552.0000             GW IRRIGATION =           8.4094
           SW IRRIGATION =   592123584.0000             SW IRRIGATION =          14.0309
        SYSTEM LOSSES GW =           0.0000          SYSTEM LOSSES GW =           0.0000
        SYSTEM LOSSES SW =           0.0000          SYSTEM LOSSES SW =           0.0000

               TOTAL OUT =   983131136.0000                 TOTAL OUT =          22.4403

                IN - OUT =      -11776.0000                  IN - OUT =      -2.8038E-04

     PERCENT DISCREPANCY =          -0.00         PERCENT DISCREPANCY =          -0.00



1
  VOLUMETRIC BUDGET FOR ENTIRE MODEL AT END OF TIME STEP   30, STRESS PERIOD  22
  ------------------------------------------------------------------------------

     CUMULATIVE VOLUMES      L**3       RATES FOR THIS TIME STEP      L**3/T
     ------------------                 ------------------------

           IN:                                      IN:
           ---                                      ---
             STORAGE     =   568974016.0000               STORAGE     =          12.4270
       CONSTANT HEAD     =           0.0000         CONSTANT HEAD     =           0.0000
     HEAD DEP BOUNDS     =    15807878.0000       HEAD DEP BOUNDS     =           0.2859
      STREAM LEAKAGE     =   662545408.0000        STREAM LEAKAGE     =          11.2068
        UZF RECHARGE     =       73223.9531          UZF RECHARGE     =           0.0000
               GW ET     =           0.0000                 GW ET     =           0.0000
     SURFACE LEAKAGE     =           0.0000       SURFACE LEAKAGE     =           0.0000
           AG WELLS      =           0.0000             AG WELLS      =           0.0000

                TOTAL IN =  1247400448.0000                  TOTAL IN =          23.9197

          OUT:                                     OUT:
          ----                                     ----
             STORAGE     =   239552480.0000               STORAGE     =           3.8493
       CONSTANT HEAD     =           0.0000         CONSTANT HEAD     =           0.0000
     HEAD DEP BOUNDS     =    16090743.0000       HEAD DEP BOUNDS     =           0.2879
      STREAM LEAKAGE     =   598616512.0000        STREAM LEAKAGE     =          11.3731
        UZF RECHARGE     =           0.0000          UZF RECHARGE     =           0.0000
               GW ET     =     2141481.7500                 GW ET     =           0.0000
     SURFACE LEAKAGE     =           0.0000       SURFACE LEAKAGE     =           0.0000
           AG WELLS      =   391007552.0000             AG WELLS      =           8.4094

               TOTAL OUT =  1247408768.0000                 TOTAL OUT =          23.9197

                IN - OUT =       -8320.0000                  IN - OUT =       4.1962E-05

     PERCENT DISCREPANCY =          -0.00         PERCENT DISCREPANCY =           0.00






         TIME SUMMARY AT END OF TIME STEP   30 IN STRESS PERIOD   22
                    SECONDS     MINUTES      HOURS       DAYS        YEARS
                    -----------------------------------------------------------
   TIME STEP LENGTH  87667.      1461.1      24.352      1.0147     2.77799E-03
 STRESS PERIOD TIME 2.63000E+06  43833.      730.56      30.440     8.33397E-02
         TOTAL TIME 5.53166E+07 9.21944E+05  15366.      640.24      1.7529    
1
1
                            STRESS PERIOD NO.   23, LENGTH =   2630000.    
                            -----------------------------------------------

                              NUMBER OF TIME STEPS =    30

                               MULTIPLIER FOR DELT =     1.000

                            INITIAL TIME STEP SIZE =   87666.66    

 REUSING NON-PARAMETER GHB CELLS FROM LAST STRESS PERIOD

      2 GHB CELLS

 REUSING STREAM SEGMENT DATA FROM LAST STRESS PERIOD



            AREAL INFILTRATION RATE
 READING ON UNIT   19 WITH FORMAT: (FREE)              

            1           2           3           4           5           6           7           8           9          10
 ........................................................................................................................
   1   1.0000E-10  2.0000E-10   0.000       0.000       0.000       0.000       0.000       0.000       0.000       0.000    
   2   2.0000E-10  1.0000E-10  2.0000E-10   0.000       0.000      8.0000E-10  8.0000E-10  5.0000E-10   0.000       0.000    
   3    0.000      5.0000E-10  1.0000E-10  1.0000E-10  8.0000E-10  8.0000E-10  5.0000E-10  5.0000E-10   0.000       0.000    
   4   8.0000E-10  5.0000E-10  1.0000E-10  1.0000E-10  1.0000E-10  1.0000E-10  1.0000E-10  1.0000E-10  2.0000E-10   0.000    
   5   8.0000E-10  5.0000E-10  1.0000E-10  1.0000E-10  1.0000E-10  1.0000E-10  1.0000E-10  1.0000E-10  1.0000E-10  1.0000E-10
   6   8.0000E-10  5.0000E-10  5.0000E-10  2.0000E-10  2.0000E-10  1.0000E-10  1.0000E-10  1.0000E-10  1.0000E-10  5.0000E-10
   7   8.0000E-10  5.0000E-10  5.0000E-10  2.0000E-10  2.0000E-10  1.0000E-10  1.0000E-10  2.0000E-10  2.0000E-10   0.000    
   8    0.000      5.0000E-10  5.0000E-10  2.0000E-10  2.0000E-10  1.0000E-10  1.0000E-10  2.0000E-10  5.0000E-10   0.000    
   9    0.000      5.0000E-10  5.0000E-10  2.0000E-10  2.0000E-10  1.0000E-10  1.0000E-10  2.0000E-10  5.0000E-10   0.000    
  10    0.000      5.0000E-10  5.0000E-10  2.0000E-10  2.0000E-10  1.0000E-10  1.0000E-10  2.0000E-10  5.0000E-10  8.0000E-10
  11    0.000      1.0000E-10  1.0000E-10  1.0000E-10  1.0000E-10  1.0000E-10  1.0000E-10  2.0000E-10  5.0000E-10   0.000    
  12   1.0000E-10  1.0000E-10  1.0000E-10  1.0000E-10  1.0000E-10  1.0000E-10  1.0000E-10  1.0000E-10  2.0000E-10   0.000    
  13   1.0000E-10  1.0000E-10  2.0000E-10  2.0000E-10  2.0000E-10  2.0000E-10  2.0000E-10  1.0000E-10  1.0000E-10   0.000    
  14    0.000      2.0000E-10  5.0000E-10  5.0000E-10  5.0000E-10  5.0000E-10  5.0000E-10  2.0000E-10  1.0000E-10   0.000    
  15    0.000       0.000      8.0000E-10  8.0000E-10  8.0000E-10  8.0000E-10   0.000       0.000       0.000       0.000    

                  ET RATE =  5.000000E-09

 USING ET EXTINCTION DEPTH FROM PREVIOUS STRESS PERIOD. CURRENT PERIOD IS:      23

 USING EXTINCTION WATER CONTENT FROM PREVIOUS STRESS PERIOD. CURRENT PERIOD IS:      23

 USING AIR ENTRY PRESSURE FROM PREVIOUS STRESS PERIOD. CURRENT PERIOD IS:      23

 USING ROOT PRESSURE HEAD FROM PREVIOUS STRESS PERIOD. CURRENT PERIOD IS:      23

 USING ROOT ACTIVITY FROM PREVIOUS STRESS PERIOD. CURRENT PERIOD IS:      23

 PROCESSING AG STRESS PERIOD DATA

 READING AG STRESS PERIOD DATA

 READING IRRIGATION SEGMENT

 READING IRRIGATION WELL

 READING SUPPLEMENTAL WELL

 END PROCESSING AG STRESS PERIOD DATA OPTIONS
 
 SOLVING FOR HEAD 
                                                   Max.-Head-Change                         Max.-Flux-Residual
  Residual-Control   Outer-Iter.   Inner-Iter.     Column Row Layer    Maximum-Head-Change  Column Row Layer    Maximum-Flux-Residual          L2-NORM 
          0                 1           2             4    7     1       0.4601831497E-01       4    7    1         0.2420885085E+01      0.5281082220E+01
          0                 2           2             4    7     1      -0.4476356117E-02       4    7    1        -0.2420904881E+00      0.5280841736E+00
          0                 3           2             4    7     1       0.3048229740E-03       4    7    1         0.1694632277E-01      0.3696376818E-01
          0                 4           1             4    7     1      -0.1212919247E-04       4    7    1        -0.6931056462E-03      0.1511945984E-02

    ------------------------------------------------
       NWT REQUIRED            4 OUTER ITERATIONS 
       AND A TOTAL OF          7 INNER ITERATIONS.
    ------------------------------------------------

 NO OUTPUT CONTROL FOR STRESS PERIOD   23   TIME STEP    1
 
 SOLVING FOR HEAD 
                                                   Max.-Head-Change                         Max.-Flux-Residual
  Residual-Control   Outer-Iter.   Inner-Iter.     Column Row Layer    Maximum-Head-Change  Column Row Layer    Maximum-Flux-Residual          L2-NORM 
          0                 1           2             4    7     1       0.4544204403E-01       4    7    1         0.2391034851E+01      0.5180980207E+01
          0                 2           2             4    7     1      -0.4420300915E-02       4    7    1        -0.2391054803E+00      0.5180773422E+00
          0                 3           2             4    7     1       0.3010058201E-03       4    7    1         0.1673737197E-01      0.3626349421E-01
          0                 4           1             4    7     1      -0.1197730439E-04       4    7    1        -0.6845595628E-03      0.1483053893E-02

    ------------------------------------------------
       NWT REQUIRED            4 OUTER ITERATIONS 
       AND A TOTAL OF          7 INNER ITERATIONS.
    ------------------------------------------------

 NO OUTPUT CONTROL FOR STRESS PERIOD   23   TIME STEP    2
 
 SOLVING FOR HEAD 
                                                   Max.-Head-Change                         Max.-Flux-Residual
  Residual-Control   Outer-Iter.   Inner-Iter.     Column Row Layer    Maximum-Head-Change  Column Row Layer    Maximum-Flux-Residual          L2-NORM 
          0                 1           2             4    7     1       0.4486492404E-01       4    7    1         0.2361097465E+01      0.5084338406E+01
          0                 2           2             4    7     1      -0.4364163030E-02       4    7    1        -0.2361117512E+00      0.5084161436E+00
          0                 3           2             4    7     1       0.2971830366E-03       4    7    1         0.1652781075E-01      0.3558750296E-01
          0                 4           1             4    7     1      -0.1182519240E-04       4    7    1        -0.6759884902E-03      0.1455419199E-02

    ------------------------------------------------
       NWT REQUIRED            4 OUTER ITERATIONS 
       AND A TOTAL OF          7 INNER ITERATIONS.
    ------------------------------------------------

 NO OUTPUT CONTROL FOR STRESS PERIOD   23   TIME STEP    3
 
 SOLVING FOR HEAD 
                                                   Max.-Head-Change                         Max.-Flux-Residual
  Residual-Control   Outer-Iter.   Inner-Iter.     Column Row Layer    Maximum-Head-Change  Column Row Layer    Maximum-Flux-Residual          L2-NORM 
          0                 1           2             4    7     1       0.4428759687E-01       4    7    1         0.2331108716E+01      0.4990971189E+01
          0                 2           2             4    7     1      -0.4308004909E-02       4    7    1        -0.2331128800E+00      0.4990820432E+00
          0                 3           2             4    7     1       0.2933588763E-03       4    7    1         0.1631788965E-01      0.3493436177E-01
          0                 4           1             4    7     1      -0.1167302549E-04       4    7    1        -0.6674027100E-03      0.1428704560E-02

    ------------------------------------------------
       NWT REQUIRED            4 OUTER ITERATIONS 
       AND A TOTAL OF          7 INNER ITERATIONS.
    ------------------------------------------------

 NO OUTPUT CONTROL FOR STRESS PERIOD   23   TIME STEP    4
 
 SOLVING FOR HEAD 
                                                   Max.-Head-Change                         Max.-Flux-Residual
  Residual-Control   Outer-Iter.   Inner-Iter.     Column Row Layer    Maximum-Head-Change  Column Row Layer    Maximum-Flux-Residual          L2-NORM 
          0                 1           2             4    7     1       0.4371091953E-01       4    7    1         0.2301116539E+01      0.4900700805E+01
          0                 2           2             4    7     1      -0.4251909921E-02       4    7    1        -0.2301136611E+00      0.4900572260E+00
          0                 3           2             4    7     1       0.2895390157E-03       4    7    1         0.1610794425E-01      0.3430275328E-01
          0                 4           1             4    7     1      -0.1152102965E-04       4    7    1        -0.6588159349E-03      0.1402890888E-02

    ------------------------------------------------
       NWT REQUIRED            4 OUTER ITERATIONS 
       AND A TOTAL OF          7 INNER ITERATIONS.
    ------------------------------------------------

 NO OUTPUT CONTROL FOR STRESS PERIOD   23   TIME STEP    5
 
 SOLVING FOR HEAD 
                                                   Max.-Head-Change                         Max.-Flux-Residual
  Residual-Control   Outer-Iter.   Inner-Iter.     Column Row Layer    Maximum-Head-Change  Column Row Layer    Maximum-Flux-Residual          L2-NORM 
          0                 1           2             4    7     1       0.4313541209E-01       4    7    1         0.2271150712E+01      0.4813347454E+01
          0                 2           2             4    7     1      -0.4195928665E-02       4    7    1        -0.2271170726E+00      0.4813237979E+00
          0                 3           2             4    7     1       0.2857269001E-03       4    7    1         0.1589818301E-01      0.3369161689E-01
          0                 4           1             4    7     1      -0.1136934190E-04       4    7    1        -0.6502366791E-03      0.1377896777E-02

    ------------------------------------------------
       NWT REQUIRED            4 OUTER ITERATIONS 
       AND A TOTAL OF          7 INNER ITERATIONS.
    ------------------------------------------------

 NO OUTPUT CONTROL FOR STRESS PERIOD   23   TIME STEP    6
 
 SOLVING FOR HEAD 
                                                   Max.-Head-Change                         Max.-Flux-Residual
  Residual-Control   Outer-Iter.   Inner-Iter.     Column Row Layer    Maximum-Head-Change  Column Row Layer    Maximum-Flux-Residual          L2-NORM 
          0                 1           2             4    7     1       0.4256182399E-01       4    7    1         0.2241252860E+01      0.4728772844E+01
          0                 2           2             4    7     1      -0.4140134049E-02       4    7    1        -0.2241272775E+00      0.4728680372E+00
          0                 3           2             4    7     1       0.2819274950E-03       4    7    1         0.1568889736E-01      0.3309985201E-01
          0                 4           1             4    7     1      -0.1121816002E-04       4    7    1        -0.6416768865E-03      0.1353710489E-02

    ------------------------------------------------
       NWT REQUIRED            4 OUTER ITERATIONS 
       AND A TOTAL OF          7 INNER ITERATIONS.
    ------------------------------------------------

 NO OUTPUT CONTROL FOR STRESS PERIOD   23   TIME STEP    7
 
 SOLVING FOR HEAD 
                                                   Max.-Head-Change                         Max.-Flux-Residual
  Residual-Control   Outer-Iter.   Inner-Iter.     Column Row Layer    Maximum-Head-Change  Column Row Layer    Maximum-Flux-Residual          L2-NORM 
          0                 1           2             4    7     1       0.4199057758E-01       4    7    1         0.2211447179E+01      0.4646821324E+01
          0                 2           2             4    7     1      -0.4084567160E-02       4    7    1        -0.2211466959E+00      0.4646743080E+00
          0                 3           2             4    7     1       0.2781435978E-03       4    7    1         0.1548025668E-01      0.3252643502E-01
          0                 4           1             4    7     1      -0.1106759545E-04       4    7    1        -0.6331434765E-03      0.1330266908E-02

    ------------------------------------------------
       NWT REQUIRED            4 OUTER ITERATIONS 
       AND A TOTAL OF          7 INNER ITERATIONS.
    ------------------------------------------------

 NO OUTPUT CONTROL FOR STRESS PERIOD   23   TIME STEP    8
 
 SOLVING FOR HEAD 
                                                   Max.-Head-Change                         Max.-Flux-Residual
  Residual-Control   Outer-Iter.   Inner-Iter.     Column Row Layer    Maximum-Head-Change  Column Row Layer    Maximum-Flux-Residual          L2-NORM 
          0                 1           2             4    7     1       0.4142218496E-01       4    7    1         0.2181762899E+01      0.4567362312E+01
          0                 2           2             4    7     1      -0.4029277820E-02       4    7    1        -0.2181782511E+00      0.4567296541E+00
          0                 3           2             4    7     1       0.2743786011E-03       4    7    1         0.1527246562E-01      0.3197037543E-01
          0                 4           1             4    7     1      -0.1091778279E-04       4    7    1        -0.6246448111E-03      0.1307523648E-02

    ------------------------------------------------
       NWT REQUIRED            4 OUTER ITERATIONS 
       AND A TOTAL OF          7 INNER ITERATIONS.
    ------------------------------------------------

 NO OUTPUT CONTROL FOR STRESS PERIOD   23   TIME STEP    9
 
 SOLVING FOR HEAD 
                                                   Max.-Head-Change                         Max.-Flux-Residual
  Residual-Control   Outer-Iter.   Inner-Iter.     Column Row Layer    Maximum-Head-Change  Column Row Layer    Maximum-Flux-Residual          L2-NORM 
          0                 1           2             4    7     1       0.4085725621E-01       4    7    1         0.2152233903E+01      0.4490280158E+01
          0                 2           2             4    7     1      -0.3974325377E-02       4    7    1        -0.2152253320E+00      0.4490225131E+00
          0                 3           2             4    7     1       0.2706365462E-03       4    7    1         0.1506576137E-01      0.3143098806E-01
          0                 4           1             4    7     1      -0.1076888273E-04       4    7    1        -0.6161905937E-03      0.1285480446E-02

    ------------------------------------------------
       NWT REQUIRED            4 OUTER ITERATIONS 
       AND A TOTAL OF          7 INNER ITERATIONS.
    ------------------------------------------------

 NO OUTPUT CONTROL FOR STRESS PERIOD   23   TIME STEP   10
 
 SOLVING FOR HEAD 
                                                   Max.-Head-Change                         Max.-Flux-Residual
  Residual-Control   Outer-Iter.   Inner-Iter.     Column Row Layer    Maximum-Head-Change  Column Row Layer    Maximum-Flux-Residual          L2-NORM 
          0                 1           2             4    7     1       0.4029607572E-01       4    7    1         0.2122877159E+01      0.4415454154E+01
          0                 2           2             4    7     1      -0.3919737501E-02       4    7    1        -0.2122896356E+00      0.4415408403E+00
          0                 3           2             4    7     1       0.2669193171E-03       4    7    1         0.1486026275E-01      0.3090729435E-01
          0                 4           1             4    7     1      -0.1062097025E-04       4    7    1        -0.6077856656E-03      0.1264015418E-02

    ------------------------------------------------
       NWT REQUIRED            4 OUTER ITERATIONS 
       AND A TOTAL OF          7 INNER ITERATIONS.
    ------------------------------------------------

 NO OUTPUT CONTROL FOR STRESS PERIOD   23   TIME STEP   11
 
 SOLVING FOR HEAD 
                                                   Max.-Head-Change                         Max.-Flux-Residual
  Residual-Control   Outer-Iter.   Inner-Iter.     Column Row Layer    Maximum-Head-Change  Column Row Layer    Maximum-Flux-Residual          L2-NORM 
          0                 1           2             4    7     1       0.3973930223E-01       4    7    1         0.2093729412E+01      0.4342784193E+01
          0                 2           2             4    7     1      -0.3865578274E-02       4    7    1        -0.2093748368E+00      0.4342746845E+00
          0                 3           2             4    7     1       0.2632312781E-03       4    7    1         0.1465622697E-01      0.3039884050E-01
          0                 4           1             4    7     1      -0.1047421997E-04       4    7    1        -0.5994405951E-03      0.1243284284E-02

    ------------------------------------------------
       NWT REQUIRED            4 OUTER ITERATIONS 
       AND A TOTAL OF          7 INNER ITERATIONS.
    ------------------------------------------------

 NO OUTPUT CONTROL FOR STRESS PERIOD   23   TIME STEP   12
 
 SOLVING FOR HEAD 
                                                   Max.-Head-Change                         Max.-Flux-Residual
  Residual-Control   Outer-Iter.   Inner-Iter.     Column Row Layer    Maximum-Head-Change  Column Row Layer    Maximum-Flux-Residual          L2-NORM 
          0                 1           2             4    7     1       0.3918700594E-01       4    7    1         0.2064795484E+01      0.4272164509E+01
          0                 2           2             4    7     1      -0.3811854528E-02       4    7    1        -0.2064814179E+00      0.4272133735E+00
          0                 3           2             4    7     1       0.2595728938E-03       4    7    1         0.1445368782E-01      0.2990458447E-01
          0                 4           1             4    7     1      -0.1032864953E-04       4    7    1        -0.5911567362E-03      0.1223046231E-02

    ------------------------------------------------
       NWT REQUIRED            4 OUTER ITERATIONS 
       AND A TOTAL OF          7 INNER ITERATIONS.
    ------------------------------------------------

 NO OUTPUT CONTROL FOR STRESS PERIOD   23   TIME STEP   13
 
 SOLVING FOR HEAD 
                                                   Max.-Head-Change                         Max.-Flux-Residual
  Residual-Control   Outer-Iter.   Inner-Iter.     Column Row Layer    Maximum-Head-Change  Column Row Layer    Maximum-Flux-Residual          L2-NORM 
          0                 1           2             4    7     1       0.3863950535E-01       4    7    1         0.2036093680E+01      0.4203504684E+01
          0                 2           2             4    7     1      -0.3758597248E-02       4    7    1        -0.2036112099E+00      0.4203479612E+00
          0                 3           2             4    7     1       0.2559462743E-03       4    7    1         0.1425277342E-01      0.2942404726E-01
          0                 4           1             4    7     1      -0.1018434307E-04       4    7    1        -0.5829393240E-03      0.1203435409E-02

    ------------------------------------------------
       NWT REQUIRED            4 OUTER ITERATIONS 
       AND A TOTAL OF          7 INNER ITERATIONS.
    ------------------------------------------------

 NO OUTPUT CONTROL FOR STRESS PERIOD   23   TIME STEP   14
 
 SOLVING FOR HEAD 
                                                   Max.-Head-Change                         Max.-Flux-Residual
  Residual-Control   Outer-Iter.   Inner-Iter.     Column Row Layer    Maximum-Head-Change  Column Row Layer    Maximum-Flux-Residual          L2-NORM 
          0                 1           2             4    7     1       0.3809735584E-01       4    7    1         0.2007655187E+01      0.4136730536E+01
          0                 2           2             4    7     1      -0.3705860463E-02       4    7    1        -0.2007673315E+00      0.4136710750E+00
          0                 3           2             4    7     1       0.2523550986E-03       4    7    1         0.1405370212E-01      0.2895675519E-01
          0                 4           1             4    7     1      -0.1004144669E-04       4    7    1        -0.5747972889E-03      0.1184320591E-02

    ------------------------------------------------
       NWT REQUIRED            4 OUTER ITERATIONS 
       AND A TOTAL OF          7 INNER ITERATIONS.
    ------------------------------------------------

 NO OUTPUT CONTROL FOR STRESS PERIOD   23   TIME STEP   15
 
 SOLVING FOR HEAD 
                                                   Max.-Head-Change                         Max.-Flux-Residual
  Residual-Control   Outer-Iter.   Inner-Iter.     Column Row Layer    Maximum-Head-Change  Column Row Layer    Maximum-Flux-Residual          L2-NORM 
          0                 1           2             4    7     1       0.3756052727E-01       4    7    1         0.1979479459E+01      0.4071739415E+01
          0                 2           2             4    7     1      -0.3653641242E-02       4    7    1        -0.1979497285E+00      0.4071724001E+00
          0                 3           2             4    7     1       0.2487991679E-03       4    7    1         0.1385647012E-01      0.2850183865E-01
          0                 4           1             4    7     1      -0.9899952795E-05       4    7    1        -0.5667304888E-03      0.1165696773E-02

    ------------------------------------------------
       NWT REQUIRED            4 OUTER ITERATIONS 
       AND A TOTAL OF          7 INNER ITERATIONS.
    ------------------------------------------------

 NO OUTPUT CONTROL FOR STRESS PERIOD   23   TIME STEP   16
 
 SOLVING FOR HEAD 
                                                   Max.-Head-Change                         Max.-Flux-Residual
  Residual-Control   Outer-Iter.   Inner-Iter.     Column Row Layer    Maximum-Head-Change  Column Row Layer    Maximum-Flux-Residual          L2-NORM 
          0                 1           2             4    7     1       0.3702951845E-01       4    7    1         0.1951594276E+01      0.4008478326E+01
          0                 2           2             4    7     1      -0.3601988111E-02       4    7    1        -0.1951611792E+00      0.4008466611E+00
          0                 3           2             4    7     1       0.2452817857E-03       4    7    1         0.1366127188E-01      0.2805909080E-01
          0                 4           1             4    7     1      -0.9759992747E-05       4    7    1        -0.5587468725E-03      0.1147720205E-02

    ------------------------------------------------
       NWT REQUIRED            4 OUTER ITERATIONS 
       AND A TOTAL OF          7 INNER ITERATIONS.
    ------------------------------------------------

 NO OUTPUT CONTROL FOR STRESS PERIOD   23   TIME STEP   17
 
 SOLVING FOR HEAD 
                                                   Max.-Head-Change                         Max.-Flux-Residual
  Residual-Control   Outer-Iter.   Inner-Iter.     Column Row Layer    Maximum-Head-Change  Column Row Layer    Maximum-Flux-Residual          L2-NORM 
          0                 1           2             5    8     1       0.9837914122E-01       5    8    1         0.5383565777E+01      0.6569479580E+01
          0                 2           2             5    8     1       0.3891094955E-01       5    8    1         0.2152742777E+01      0.2185447784E+01
          0                 3           2             5    8     1       0.1535910124E-01       5    8    1         0.8472938554E+00      0.8477311246E+00
          0                 4           1             5    8     1       0.6062618475E-02       5    8    1         0.3346025396E+00      0.3346039715E+00
          0                 5           1             5    8     1       0.2393066982E-02       5    8    1         0.1320688827E+00      0.1320695230E+00
          0                 6           1             5    8     1       0.9446034824E-03       5    8    1         0.5213130174E-01      0.5213152191E-01
          0                 7           1             5    8     1       0.3728586806E-03       5    8    1         0.2057750995E-01      0.2057759808E-01
          0                 8           1             5    8     1       0.1471766744E-03       5    8    1         0.8122461833E-02      0.8122496552E-02
          0                 9           1             5    8     1       0.5809432574E-04       5    8    1         0.3206139398E-02      0.3206153100E-02

    ------------------------------------------------
       NWT REQUIRED            9 OUTER ITERATIONS 
       AND A TOTAL OF         12 INNER ITERATIONS.
    ------------------------------------------------

 NO OUTPUT CONTROL FOR STRESS PERIOD   23   TIME STEP   18
 
 SOLVING FOR HEAD 
                                                   Max.-Head-Change                         Max.-Flux-Residual
  Residual-Control   Outer-Iter.   Inner-Iter.     Column Row Layer    Maximum-Head-Change  Column Row Layer    Maximum-Flux-Residual          L2-NORM 
          0                 1           2             5    8     1       0.1961069195E+00       5    8    1         0.1076568108E+02      0.1142536243E+02
          0                 2           2             5    8     1       0.3794121426E-01       5    8    1         0.2099890060E+01      0.2134455375E+01
          0                 3           2             5    8     1       0.1227293085E-02       5    8    1         0.6728652273E-01      0.7276883073E-01
          0                 4           1             5    8     1       0.3970232188E-04       5    8    1         0.2211526596E-02      0.2476493373E-02

    ------------------------------------------------
       NWT REQUIRED            4 OUTER ITERATIONS 
       AND A TOTAL OF          7 INNER ITERATIONS.
    ------------------------------------------------

 NO OUTPUT CONTROL FOR STRESS PERIOD   23   TIME STEP   19
 
 SOLVING FOR HEAD 
                                                   Max.-Head-Change                         Max.-Flux-Residual
  Residual-Control   Outer-Iter.   Inner-Iter.     Column Row Layer    Maximum-Head-Change  Column Row Layer    Maximum-Flux-Residual          L2-NORM 
          0                 1           2             4    7     1       0.3586255950E-01       4    7    1         0.1882454051E+01      0.3968277735E+01
          0                 2           2             4    7     1      -0.3488469800E-02       4    7    1        -0.1882464880E+00      0.3968135296E+00
          0                 3           2             4    7     1       0.2375516988E-03       4    7    1         0.1317724960E-01      0.2777682270E-01
          0                 4           1             4    7     1      -0.9452405186E-05       4    7    1        -0.5389502990E-03      0.1136065257E-02

    ------------------------------------------------
       NWT REQUIRED            4 OUTER ITERATIONS 
       AND A TOTAL OF          7 INNER ITERATIONS.
    ------------------------------------------------

 NO OUTPUT CONTROL FOR STRESS PERIOD   23   TIME STEP   20
 
 SOLVING FOR HEAD 
                                                   Max.-Head-Change                         Max.-Flux-Residual
  Residual-Control   Outer-Iter.   Inner-Iter.     Column Row Layer    Maximum-Head-Change  Column Row Layer    Maximum-Flux-Residual          L2-NORM 
          0                 1           2             4    7     1       0.3547730166E-01       4    7    1         0.1863366579E+01      0.3882658807E+01
          0                 2           2             4    7     1      -0.3450991640E-02       4    7    1        -0.1863378180E+00      0.3882667431E+00
          0                 3           2             4    7     1       0.2349995651E-03       4    7    1         0.1304364192E-01      0.2717858855E-01
          0                 4           1             4    7     1      -0.9350853432E-05       4    7    1        -0.5334857574E-03      0.1111597535E-02

    ------------------------------------------------
       NWT REQUIRED            4 OUTER ITERATIONS 
       AND A TOTAL OF          7 INNER ITERATIONS.
    ------------------------------------------------

 NO OUTPUT CONTROL FOR STRESS PERIOD   23   TIME STEP   21
 
 SOLVING FOR HEAD 
                                                   Max.-Head-Change                         Max.-Flux-Residual
  Residual-Control   Outer-Iter.   Inner-Iter.     Column Row Layer    Maximum-Head-Change  Column Row Layer    Maximum-Flux-Residual          L2-NORM 
          0                 1           2             4    7     1       0.3507714764E-01       4    7    1         0.1843347659E+01      0.3802852909E+01
          0                 2           2             4    7     1      -0.3412005812E-02       4    7    1        -0.1843359869E+00      0.3803331816E+00
          0                 3           2             4    7     1       0.2323446408E-03       4    7    1         0.1290351308E-01      0.2662350799E-01
          0                 4           1             4    7     1      -0.9245218563E-05       4    7    1        -0.5277544747E-03      0.1088890538E-02

    ------------------------------------------------
       NWT REQUIRED            4 OUTER ITERATIONS 
       AND A TOTAL OF          7 INNER ITERATIONS.
    ------------------------------------------------

 NO OUTPUT CONTROL FOR STRESS PERIOD   23   TIME STEP   22
 
 SOLVING FOR HEAD 
                                                   Max.-Head-Change                         Max.-Flux-Residual
  Residual-Control   Outer-Iter.   Inner-Iter.     Column Row Layer    Maximum-Head-Change  Column Row Layer    Maximum-Flux-Residual          L2-NORM 
          0                 1           2             4    7     1       0.3466506603E-01       4    7    1         0.1822566832E+01      0.3728278613E+01
          0                 2           2             4    7     1      -0.3371840296E-02       4    7    1        -0.1822579508E+00      0.3729018200E+00
          0                 3           2             4    7     1       0.2296141834E-03       4    7    1         0.1275805002E-01      0.2609642474E-01
          0                 4           1             4    7     1      -0.9136421254E-05       4    7    1        -0.5218050383E-03      0.1067386960E-02

    ------------------------------------------------
       NWT REQUIRED            4 OUTER ITERATIONS 
       AND A TOTAL OF          7 INNER ITERATIONS.
    ------------------------------------------------

 NO OUTPUT CONTROL FOR STRESS PERIOD   23   TIME STEP   23
 
 SOLVING FOR HEAD 
                                                   Max.-Head-Change                         Max.-Flux-Residual
  Residual-Control   Outer-Iter.   Inner-Iter.     Column Row Layer    Maximum-Head-Change  Column Row Layer    Maximum-Flux-Residual          L2-NORM 
          0                 1           2             4    7     1       0.3424329047E-01       4    7    1         0.1801154187E+01      0.3658310491E+01
          0                 2           2             4    7     1      -0.3330760184E-02       4    7    1        -0.1801167206E+00      0.3658079088E+00
          0                 3           2             4    7     1       0.2268184543E-03       4    7    1         0.1260816350E-01      0.2559674849E-01
          0                 4           1             4    7     1      -0.9025123488E-05       4    7    1        -0.5156746729E-03      0.1046947899E-02

    ------------------------------------------------
       NWT REQUIRED            4 OUTER ITERATIONS 
       AND A TOTAL OF          7 INNER ITERATIONS.
    ------------------------------------------------

 NO OUTPUT CONTROL FOR STRESS PERIOD   23   TIME STEP   24
 
 SOLVING FOR HEAD 
                                                   Max.-Head-Change                         Max.-Flux-Residual
  Residual-Control   Outer-Iter.   Inner-Iter.     Column Row Layer    Maximum-Head-Change  Column Row Layer    Maximum-Flux-Residual          L2-NORM 
          0                 1           2             4    7     1       0.3381409831E-01       4    7    1         0.1779244565E+01      0.3592319248E+01
          0                 2           2             4    7     1      -0.3288963955E-02       4    7    1        -0.1779257823E+00      0.3590586867E+00
          0                 3           2             4    7     1       0.2239737921E-03       4    7    1         0.1245479751E-01      0.2512114752E-01
          0                 4           1             4    7     1      -0.8911884211E-05       4    7    1        -0.5094019964E-03      0.1027495434E-02

    ------------------------------------------------
       NWT REQUIRED            4 OUTER ITERATIONS 
       AND A TOTAL OF          7 INNER ITERATIONS.
    ------------------------------------------------

 NO OUTPUT CONTROL FOR STRESS PERIOD   23   TIME STEP   25
 
 SOLVING FOR HEAD 
                                                   Max.-Head-Change                         Max.-Flux-Residual
  Residual-Control   Outer-Iter.   Inner-Iter.     Column Row Layer    Maximum-Head-Change  Column Row Layer    Maximum-Flux-Residual          L2-NORM 
          0                 1           2             4    7     1       0.3337940314E-01       4    7    1         0.1756950095E+01      0.3529838583E+01
          0                 2           2             4    7     1      -0.3246637125E-02       4    7    1        -0.1756963503E+00      0.3526216134E+00
          0                 3           2             4    7     1       0.2210928433E-03       4    7    1         0.1229873704E-01      0.2466743519E-01
          0                 4           1             4    7     1      -0.8797206068E-05       4    7    1        -0.5030191178E-03      0.1008942829E-02

    ------------------------------------------------
       NWT REQUIRED            4 OUTER ITERATIONS 
       AND A TOTAL OF          7 INNER ITERATIONS.
    ------------------------------------------------

 NO OUTPUT CONTROL FOR STRESS PERIOD   23   TIME STEP   26
 
 SOLVING FOR HEAD 
                                                   Max.-Head-Change                         Max.-Flux-Residual
  Residual-Control   Outer-Iter.   Inner-Iter.     Column Row Layer    Maximum-Head-Change  Column Row Layer    Maximum-Flux-Residual          L2-NORM 
          0                 1           2             4    7     1       0.3294074781E-01       4    7    1         0.1734362687E+01      0.3470439936E+01
          0                 2           2             4    7     1      -0.3203929470E-02       4    7    1        -0.1734376170E+00      0.3464657729E+00
          0                 3           2             4    7     1       0.2181858213E-03       4    7    1         0.1214062557E-01      0.2423347729E-01
          0                 4           1             4    7     1      -0.8681494771E-05       4    7    1        -0.4965523397E-03      0.9911975471E-03

    ------------------------------------------------
       NWT REQUIRED            4 OUTER ITERATIONS 
       AND A TOTAL OF          7 INNER ITERATIONS.
    ------------------------------------------------

 NO OUTPUT CONTROL FOR STRESS PERIOD   23   TIME STEP   27
 
 SOLVING FOR HEAD 
                                                   Max.-Head-Change                         Max.-Flux-Residual
  Residual-Control   Outer-Iter.   Inner-Iter.     Column Row Layer    Maximum-Head-Change  Column Row Layer    Maximum-Flux-Residual          L2-NORM 
          0                 1           2             4    7     1       0.3249962213E-01       4    7    1         0.1711569694E+01      0.3413789745E+01
          0                 2           2             4    7     1      -0.3160985504E-02       4    7    1        -0.1711583187E+00      0.3405672388E+00
          0                 3           2             4    7     1       0.2152625797E-03       4    7    1         0.1198107458E-01      0.2381765298E-01
          0                 4           1             4    7     1      -0.8565141752E-05       4    7    1        -0.4900266806E-03      0.9742172494E-03

    ------------------------------------------------
       NWT REQUIRED            4 OUTER ITERATIONS 
       AND A TOTAL OF          7 INNER ITERATIONS.
    ------------------------------------------------

 NO OUTPUT CONTROL FOR STRESS PERIOD   23   TIME STEP   28
 
 SOLVING FOR HEAD 
                                                   Max.-Head-Change                         Max.-Flux-Residual
  Residual-Control   Outer-Iter.   Inner-Iter.     Column Row Layer    Maximum-Head-Change  Column Row Layer    Maximum-Flux-Residual          L2-NORM 
          0                 1           2             4    7     1       0.3205746378E-01       4    7    1         0.1688655727E+01      0.3359591942E+01
          0                 2           2             4    7     1      -0.3117944707E-02       4    7    1        -0.1688669177E+00      0.3349039059E+00
          0                 3           2             4    7     1       0.2123326299E-03       4    7    1         0.1182067651E-01      0.2341836630E-01
          0                 4           1             4    7     1      -0.8448526358E-05       4    7    1        -0.4834664051E-03      0.9578542818E-03

    ------------------------------------------------
       NWT REQUIRED            4 OUTER ITERATIONS 
       AND A TOTAL OF          7 INNER ITERATIONS.
    ------------------------------------------------

 NO OUTPUT CONTROL FOR STRESS PERIOD   23   TIME STEP   29
 
 SOLVING FOR HEAD 
                                                   Max.-Head-Change                         Max.-Flux-Residual
  Residual-Control   Outer-Iter.   Inner-Iter.     Column Row Layer    Maximum-Head-Change  Column Row Layer    Maximum-Flux-Residual          L2-NORM 
          0                 1           2             4    7     1       0.3161540410E-01       4    7    1         0.1665688009E+01      0.3307577350E+01
          0                 2           2             4    7     1      -0.3074916802E-02       4    7    1        -0.1665701371E+00      0.3294549032E+00
          0                 3           2             4    7     1       0.2094034523E-03       4    7    1         0.1165990186E-01      0.2303421694E-01
          0                 4           1             4    7     1      -0.8331944581E-05       4    7    1        -0.4768907158E-03      0.9421471258E-03

    ------------------------------------------------
       NWT REQUIRED            4 OUTER ITERATIONS 
       AND A TOTAL OF          7 INNER ITERATIONS.
    ------------------------------------------------

 NO OUTPUT CONTROL FOR STRESS PERIOD   23   TIME STEP   30



 STREAM LISTING     PERIOD     23   STEP       30

 LAYER ROW COL. STREAM  RCH.  FLOW INTO     FLOW TO   FLOW OUT OF   OVRLND.     DIRECT     STREAM       STREAM     STREAM     STREAM   STREAMBED  STREAMBED
                SEG.NO.  NO.  STRM. RCH.    AQUIFER    STRM. RCH.    RUNOFF     PRECIP       ET          HEAD       DEPTH      WIDTH   CONDCTNC.   GRADIENT

   1    1    1     1     1    1.6500E+01  1.9759E-01   1.6303E+01  0.000E+00  0.000E+00  0.000E+00  1.09409E+03  1.039E+00  1.087E+01  4.893E-02  1.346E+00
   1    2    2     1     2    1.6303E+01  3.0466E-01   1.5998E+01  0.000E+00  0.000E+00  0.000E+00  1.08909E+03  1.034E+00  1.079E+01  7.552E-02  1.345E+00
   1    3    3     1     3    1.5998E+01  2.5853E-01   1.5739E+01  0.000E+00  0.000E+00  0.000E+00  1.08345E+03  1.029E+00  1.070E+01  6.417E-02  1.343E+00
   1    3    4     1     4    1.5739E+01  2.3700E-01   1.5502E+01  0.000E+00  0.000E+00  0.000E+00  1.07843E+03  1.024E+00  1.061E+01  5.890E-02  1.341E+00
   1    4    5     2     1    1.3502E+01  2.9865E-01   1.3204E+01  0.000E+00  0.000E+00  0.000E+00  1.07276E+03  8.289E-01  1.200E+01  7.800E-02  1.276E+00
   1    5    6     2     2    1.3204E+01  2.2914E-01   1.2975E+01  0.000E+00  0.000E+00  0.000E+00  1.06733E+03  8.190E-01  1.200E+01  6.000E-02  1.273E+00
   1    6    6     2     3    1.2975E+01  2.2862E-01   1.2746E+01  0.000E+00  0.000E+00  0.000E+00  1.06260E+03  8.104E-01  1.200E+01  6.000E-02  1.270E+00
   1    7    6     2     4    1.2746E+01  2.2810E-01   1.2518E+01  0.000E+00  0.000E+00  0.000E+00  1.05788E+03  8.017E-01  1.200E+01  6.000E-02  1.267E+00
   1    8    6     2     5    1.2518E+01  2.2758E-01   1.2290E+01  0.000E+00  0.000E+00  0.000E+00  1.05315E+03  7.930E-01  1.200E+01  6.000E-02  1.264E+00
   1    3    5     3     1    2.0000E+00  2.8252E-01   1.7175E+00  0.000E+00  0.000E+00  0.000E+00  1.07555E+03  1.909E+00  9.636E+00  7.227E-02  1.955E+00
   1    3    6     3     2    1.7175E+00  2.4905E-01   1.4684E+00  0.000E+00  0.000E+00  0.000E+00  1.07264E+03  1.727E+00  8.909E+00  6.682E-02  1.864E+00
   1    3    7     3     3    1.4684E+00  1.9718E-01   1.2712E+00  0.000E+00  0.000E+00  0.000E+00  1.06987E+03  1.555E+00  8.218E+00  5.547E-02  1.777E+00
   1    4    8     3     4    1.2712E+00  2.2567E-01   1.0456E+00  0.000E+00  0.000E+00  0.000E+00  1.06682E+03  1.364E+00  7.455E+00  6.709E-02  1.682E+00
   1    5    8     3     5    1.0456E+00  1.5790E-01   8.8768E-01  0.000E+00  0.000E+00  0.000E+00  1.06362E+03  1.164E+00  6.655E+00  4.991E-02  1.582E+00
   1    6    8     3     6    8.8768E-01  5.5980E-02   8.3170E-01  0.000E+00  0.000E+00  0.000E+00  1.06158E+03  1.036E+00  6.145E+00  1.844E-02  1.518E+00
   1    5   10     4     1    1.0000E+01  9.0919E-02   9.9091E+00  0.000E+00  0.000E+00  0.000E+00  1.07836E+03  6.368E-01  1.000E+01  2.500E-02  1.212E+00
   1    5    9     4     2    9.9091E+00  1.8158E-01   9.7275E+00  0.000E+00  0.000E+00  0.000E+00  1.07154E+03  6.315E-01  1.000E+01  5.000E-02  1.211E+00
   1    6    8     4     3    9.7275E+00  1.2689E-01   9.6006E+00  0.000E+00  0.000E+00  0.000E+00  1.06381E+03  6.256E-01  1.000E+01  3.500E-02  1.209E+00
   1    6    8     5     1    1.0432E+01  2.2686E-01   1.0205E+01  0.000E+00  0.000E+00  0.000E+00  1.05868E+03  6.790E-01  1.542E+01  6.166E-02  1.226E+00
   1    7    7     5     2    1.0205E+01  2.7894E-01   9.9265E+00  0.000E+00  0.000E+00  0.000E+00  1.05417E+03  6.732E-01  1.519E+01  7.594E-02  1.224E+00
   1    8    7     5     3    9.9265E+00  1.9221E-01   9.7343E+00  0.000E+00  0.000E+00  0.000E+00  1.04992E+03  6.676E-01  1.497E+01  5.241E-02  1.223E+00
   1    8    6     5     4    9.7343E+00  1.3577E-01   9.5985E+00  0.000E+00  0.000E+00  0.000E+00  1.04691E+03  6.637E-01  1.482E+01  3.706E-02  1.221E+00
   1    9    6     6     1    2.1889E+01  2.4742E-01   2.1641E+01  0.000E+00  0.000E+00  0.000E+00  1.04385E+03  1.124E+00  1.200E+01  6.000E-02  1.375E+00
   1   10    7     6     2    2.1641E+01  2.4696E-01   2.1395E+01  0.000E+00  0.000E+00  0.000E+00  1.03930E+03  1.116E+00  1.200E+01  6.000E-02  1.372E+00
   1   11    7     6     3    2.1395E+01  2.4650E-01   2.1148E+01  0.000E+00  0.000E+00  0.000E+00  1.03474E+03  1.108E+00  1.200E+01  6.000E-02  1.369E+00
   1   12    7     6     4    2.1148E+01  2.4603E-01   2.0902E+01  0.000E+00  0.000E+00  0.000E+00  1.03019E+03  1.101E+00  1.200E+01  6.000E-02  1.367E+00
   1   13    7     6     5    2.0902E+01 -8.5135E-03   2.0911E+01  0.000E+00  0.000E+00  0.000E+00  1.02701E+03  1.097E+00  1.200E+01  2.400E-01 -1.182E-02
   1   14    9     7     1    1.5000E+02  1.3385E+00   1.4866E+02  0.000E+00  0.000E+00  0.000E+00  1.03987E+03  2.288E+00  5.529E+01  5.593E-01  7.977E-01
   1   13    8     7     2    1.4866E+02  1.8433E+00   1.4682E+02  0.000E+00  0.000E+00  0.000E+00  1.03478E+03  2.279E+00  5.526E+01  6.148E-01  9.995E-01
   1   13    7     7     3    1.4682E+02  1.4790E+00   1.4534E+02  0.000E+00  0.000E+00  0.000E+00  1.02969E+03  2.270E+00  5.522E+01  5.584E-01  8.828E-01
   1   13    6     8     1    1.6625E+02  9.0709E-01   1.6534E+02  0.000E+00  0.000E+00  0.000E+00  1.02480E+03  2.925E+00  4.241E+01  4.321E-01  6.997E-01
   1   13    5     8     2    1.6534E+02  1.6378E-01   1.6518E+02  0.000E+00  0.000E+00  0.000E+00  1.01855E+03  2.921E+00  4.236E+01  4.316E-01  1.265E-01
   1   13    4     8     3    1.6518E+02 -2.4720E+00   1.6765E+02  0.000E+00  0.000E+00  0.000E+00  1.01230E+03  2.929E+00  4.247E+01  4.327E+00 -1.904E-01
   1   13    3     8     4    1.6765E+02 -3.6586E+00   1.7131E+02  0.000E+00  0.000E+00  0.000E+00  1.00607E+03  2.949E+00  4.276E+01  4.357E+00 -2.799E-01
   1   13    2     8     5    1.7131E+02 -2.5651E+00   1.7387E+02  0.000E+00  0.000E+00  0.000E+00  9.99844E+02  2.969E+00  4.305E+01  4.387E+00 -1.949E-01
   1   13    1     8     6    1.7387E+02 -1.9609E+00   1.7584E+02  0.000E+00  0.000E+00  0.000E+00  9.94859E+02  2.984E+00  4.326E+01  2.645E+00 -2.471E-01
   1    8    6     9     1    0.0000E+00  0.0000E+00   0.0000E+00  0.000E+00  0.000E+00  0.000E+00  1.07875E+03  0.000E+00  4.000E+00  0.000E+00  1.000E+00
   1    8    5     9     2    0.0000E+00  0.0000E+00   0.0000E+00  0.000E+00  0.000E+00  0.000E+00  1.07825E+03  0.000E+00  4.000E+00  0.000E+00  1.000E+00





UNSATURATED ZONE PACKAGE VOLUMETRIC BUDGET FOR  TIME STEP    30 STRESS PERIOD   23
  ------------------------------------------------------------------------------



     CUMULATIVE VOLUMES      L**3       RATES FOR THIS TIME STEP      L**3/T
     ------------------                 ------------------------

           IN:                                      IN:
           ---                                      ---
        INFILTRATION =  1032235090.5240          INFILTRATION =           0.8475

          OUT:                                     OUT:
          ----                                     ----
              UZF ET =   857394665.1293                UZF ET =           0.8475
        UZF RECHARGE =     2048090.6668          UZF RECHARGE =           0.0542

            IN - OUT =   172792334.7278              IN - OUT =      -5.4225E-02

          STORAGE:                                 STORAGE:
          --------                                 --------
      STORAGE CHANGE =   172792801.1479        STORAGE CHANGE =      -5.4225E-02

 PERCENT DISCREPANCY IS DIFFERENCE BETWEEN IN-OUT MINUS CHANGE IN STORAGE
 DIVIDED BY THE AVERAGE OF IN AND OUT TIMES 100

 PERCENT DISCREPANCY =          -0.00     PERCENT DISCREPANCY =           0.00






1
  VOLUMETRIC BUDGET FOR AGRICULTURAL FIELDS AT  END OF TIME STEP   30, STRESS PERIOD  23
  ------------------------------------------------------------------------------

     CUMULATIVE VOLUMES      L**3       RATES FOR THIS TIME STEP      L**3/T
     ------------------                 ------------------------

           IN:                                      IN:
           ---                                      ---
               AG WELLS  =   391007552.0000                 AG WELLS  =           0.0000
      DIVERSION SEGMENTS =   592111808.0000        DIVERSION SEGMENTS =           0.0000
           GW IRRIGATION =           0.0000             GW IRRIGATION =           0.0000
           SW IRRIGATION =           0.0000             SW IRRIGATION =           0.0000
        SYSTEM LOSSES GW =           0.0000          SYSTEM LOSSES GW =           0.0000
        SYSTEM LOSSES SW =           0.0000          SYSTEM LOSSES SW =           0.0000

                TOTAL IN =   983119360.0000                  TOTAL IN =           0.0000

          OUT:                                     OUT:
          ----                                     ----
               AG WELLS  =           0.0000                 AG WELLS  =           0.0000
      DIVERSION SEGMENTS =           0.0000        DIVERSION SEGMENTS =           0.0000
           GW IRRIGATION =   391007552.0000             GW IRRIGATION =           0.0000
           SW IRRIGATION =   592123584.0000             SW IRRIGATION =           0.0000
        SYSTEM LOSSES GW =           0.0000          SYSTEM LOSSES GW =           0.0000
        SYSTEM LOSSES SW =           0.0000          SYSTEM LOSSES SW =           0.0000

               TOTAL OUT =   983131136.0000                 TOTAL OUT =           0.0000

                IN - OUT =      -11776.0000                  IN - OUT =           0.0000

     PERCENT DISCREPANCY =          -0.00         PERCENT DISCREPANCY =           0.00



1
  VOLUMETRIC BUDGET FOR ENTIRE MODEL AT END OF TIME STEP   30, STRESS PERIOD  23
  ------------------------------------------------------------------------------

     CUMULATIVE VOLUMES      L**3       RATES FOR THIS TIME STEP      L**3/T
     ------------------                 ------------------------

           IN:                                      IN:
           ---                                      ---
             STORAGE     =   593752576.0000               STORAGE     =           7.9414
       CONSTANT HEAD     =           0.0000         CONSTANT HEAD     =           0.0000
     HEAD DEP BOUNDS     =    16559859.0000       HEAD DEP BOUNDS     =           0.2859
      STREAM LEAKAGE     =   692337600.0000        STREAM LEAKAGE     =          11.3299
        UZF RECHARGE     =     2048090.5000          UZF RECHARGE     =       5.4225E-02
               GW ET     =           0.0000                 GW ET     =           0.0000
     SURFACE LEAKAGE     =           0.0000       SURFACE LEAKAGE     =           0.0000
           AG WELLS      =           0.0000             AG WELLS      =           0.0000

                TOTAL IN =  1304698240.0000                  TOTAL IN =          19.6115

          OUT:                                     OUT:
          ----                                     ----
             STORAGE     =   268269776.0000               STORAGE     =           8.6576
       CONSTANT HEAD     =           0.0000         CONSTANT HEAD     =           0.0000
     HEAD DEP BOUNDS     =    16849442.0000       HEAD DEP BOUNDS     =           0.2888
      STREAM LEAKAGE     =   626437568.0000        STREAM LEAKAGE     =          10.6651
        UZF RECHARGE     =           0.0000          UZF RECHARGE     =           0.0000
               GW ET     =     2141481.7500                 GW ET     =           0.0000
     SURFACE LEAKAGE     =           0.0000       SURFACE LEAKAGE     =           0.0000
           AG WELLS      =   391007552.0000             AG WELLS      =           0.0000

               TOTAL OUT =  1304705792.0000                 TOTAL OUT =          19.6115

                IN - OUT =       -7552.0000                  IN - OUT =       7.6294E-06

     PERCENT DISCREPANCY =          -0.00         PERCENT DISCREPANCY =           0.00






         TIME SUMMARY AT END OF TIME STEP   30 IN STRESS PERIOD   23
                    SECONDS     MINUTES      HOURS       DAYS        YEARS
                    -----------------------------------------------------------
   TIME STEP LENGTH  87667.      1461.1      24.352      1.0147     2.77799E-03
 STRESS PERIOD TIME 2.63000E+06  43833.      730.56      30.440     8.33397E-02
         TOTAL TIME 5.79467E+07 9.65778E+05  16096.      670.68      1.8362    
1
1
                            STRESS PERIOD NO.   24, LENGTH =   2630000.    
                            -----------------------------------------------

                              NUMBER OF TIME STEPS =    30

                               MULTIPLIER FOR DELT =     1.000

                            INITIAL TIME STEP SIZE =   87666.66    

 REUSING NON-PARAMETER GHB CELLS FROM LAST STRESS PERIOD

      2 GHB CELLS

 REUSING STREAM SEGMENT DATA FROM LAST STRESS PERIOD



            AREAL INFILTRATION RATE
 READING ON UNIT   19 WITH FORMAT: (FREE)              

            1           2           3           4           5           6           7           8           9          10
 ........................................................................................................................
   1   1.0000E-10  2.0000E-10   0.000       0.000       0.000       0.000       0.000       0.000       0.000       0.000    
   2   2.0000E-10  1.0000E-10  2.0000E-10   0.000       0.000      8.0000E-10  8.0000E-10  5.0000E-10   0.000       0.000    
   3    0.000      5.0000E-10  1.0000E-10  1.0000E-10  8.0000E-10  8.0000E-10  5.0000E-10  5.0000E-10   0.000       0.000    
   4   8.0000E-10  5.0000E-10  1.0000E-10  1.0000E-10  1.0000E-10  1.0000E-10  1.0000E-10  1.0000E-10  2.0000E-10   0.000    
   5   8.0000E-10  5.0000E-10  1.0000E-10  1.0000E-10  1.0000E-10  1.0000E-10  1.0000E-10  1.0000E-10  1.0000E-10  1.0000E-10
   6   8.0000E-10  5.0000E-10  5.0000E-10  2.0000E-10  2.0000E-10  1.0000E-10  1.0000E-10  1.0000E-10  1.0000E-10  5.0000E-10
   7   8.0000E-10  5.0000E-10  5.0000E-10  2.0000E-10  2.0000E-10  1.0000E-10  1.0000E-10  2.0000E-10  2.0000E-10   0.000    
   8    0.000      5.0000E-10  5.0000E-10  2.0000E-10  2.0000E-10  1.0000E-10  1.0000E-10  2.0000E-10  5.0000E-10   0.000    
   9    0.000      5.0000E-10  5.0000E-10  2.0000E-10  2.0000E-10  1.0000E-10  1.0000E-10  2.0000E-10  5.0000E-10   0.000    
  10    0.000      5.0000E-10  5.0000E-10  2.0000E-10  2.0000E-10  1.0000E-10  1.0000E-10  2.0000E-10  5.0000E-10  8.0000E-10
  11    0.000      1.0000E-10  1.0000E-10  1.0000E-10  1.0000E-10  1.0000E-10  1.0000E-10  2.0000E-10  5.0000E-10   0.000    
  12   1.0000E-10  1.0000E-10  1.0000E-10  1.0000E-10  1.0000E-10  1.0000E-10  1.0000E-10  1.0000E-10  2.0000E-10   0.000    
  13   1.0000E-10  1.0000E-10  2.0000E-10  2.0000E-10  2.0000E-10  2.0000E-10  2.0000E-10  1.0000E-10  1.0000E-10   0.000    
  14    0.000      2.0000E-10  5.0000E-10  5.0000E-10  5.0000E-10  5.0000E-10  5.0000E-10  2.0000E-10  1.0000E-10   0.000    
  15    0.000       0.000      8.0000E-10  8.0000E-10  8.0000E-10  8.0000E-10   0.000       0.000       0.000       0.000    

                  ET RATE =  5.000000E-10

 USING ET EXTINCTION DEPTH FROM PREVIOUS STRESS PERIOD. CURRENT PERIOD IS:      24

 USING EXTINCTION WATER CONTENT FROM PREVIOUS STRESS PERIOD. CURRENT PERIOD IS:      24

 USING AIR ENTRY PRESSURE FROM PREVIOUS STRESS PERIOD. CURRENT PERIOD IS:      24

 USING ROOT PRESSURE HEAD FROM PREVIOUS STRESS PERIOD. CURRENT PERIOD IS:      24

 USING ROOT ACTIVITY FROM PREVIOUS STRESS PERIOD. CURRENT PERIOD IS:      24

 PROCESSING AG STRESS PERIOD DATA

 READING AG STRESS PERIOD DATA

 READING IRRIGATION SEGMENT

 READING IRRIGATION WELL

 READING SUPPLEMENTAL WELL

 END PROCESSING AG STRESS PERIOD DATA OPTIONS
 
 SOLVING FOR HEAD 
                                                   Max.-Head-Change                         Max.-Flux-Residual
  Residual-Control   Outer-Iter.   Inner-Iter.     Column Row Layer    Maximum-Head-Change  Column Row Layer    Maximum-Flux-Residual          L2-NORM 
          0                 1           2             4    7     1       0.3117429910E-01       4    7    1         0.1642717870E+01      0.3257985522E+01
          0                 2           2             4    7     1      -0.3031984746E-02       4    7    1        -0.1642731107E+00      0.3242489828E+00
          0                 3           2             4    7     1       0.2064807066E-03       4    7    1         0.1149911006E-01      0.2266723370E-01
          0                 4           1             4    7     1      -0.8215621496E-05       4    7    1        -0.4703143181E-03      0.9271272397E-03

    ------------------------------------------------
       NWT REQUIRED            4 OUTER ITERATIONS 
       AND A TOTAL OF          7 INNER ITERATIONS.
    ------------------------------------------------

 NO OUTPUT CONTROL FOR STRESS PERIOD   24   TIME STEP    1
 
 SOLVING FOR HEAD 
                                                   Max.-Head-Change                         Max.-Flux-Residual
  Residual-Control   Outer-Iter.   Inner-Iter.     Column Row Layer    Maximum-Head-Change  Column Row Layer    Maximum-Flux-Residual          L2-NORM 
          0                 1           2             4    7     1       0.3073500813E-01       4    7    1         0.1619797056E+01      0.3210523388E+01
          0                 2           2             4    7     1      -0.2989231880E-02       4    7    1        -0.1619810135E+00      0.3192602735E+00
          0                 3           2             4    7     1       0.2035700760E-03       4    7    1         0.1133866333E-01      0.2231560238E-01
          0                 4           1             4    7     1      -0.8099783213E-05       4    7    1        -0.4637520256E-03      0.9127519102E-03

    ------------------------------------------------
       NWT REQUIRED            4 OUTER ITERATIONS 
       AND A TOTAL OF          7 INNER ITERATIONS.
    ------------------------------------------------

 NO OUTPUT CONTROL FOR STRESS PERIOD   24   TIME STEP    2
 
 SOLVING FOR HEAD 
                                                   Max.-Head-Change                         Max.-Flux-Residual
  Residual-Control   Outer-Iter.   Inner-Iter.     Column Row Layer    Maximum-Head-Change  Column Row Layer    Maximum-Flux-Residual          L2-NORM 
          0                 1           2             4    7     1       0.3029841707E-01       4    7    1         0.1596977483E+01      0.3163921359E+01
          0                 2           2             4    7     1      -0.2946744097E-02       4    7    1        -0.1596990379E+00      0.3143647403E+00
          0                 3           2             4    7     1       0.2006774189E-03       4    7    1         0.1117892514E-01      0.2197065415E-01
          0                 4           1             4    7     1      -0.7984662980E-05       4    7    1        -0.4572187365E-03      0.8986377943E-03

    ------------------------------------------------
       NWT REQUIRED            4 OUTER ITERATIONS 
       AND A TOTAL OF          7 INNER ITERATIONS.
    ------------------------------------------------

 NO OUTPUT CONTROL FOR STRESS PERIOD   24   TIME STEP    3
 
 SOLVING FOR HEAD 
                                                   Max.-Head-Change                         Max.-Flux-Residual
  Residual-Control   Outer-Iter.   Inner-Iter.     Column Row Layer    Maximum-Head-Change  Column Row Layer    Maximum-Flux-Residual          L2-NORM 
          0                 1           2             4    7     1       0.2986503602E-01       4    7    1         0.1574290408E+01      0.3118810633E+01
          0                 2           2             4    7     1      -0.2904570796E-02       4    7    1        -0.1574303100E+00      0.3096274375E+00
          0                 3           2             4    7     1       0.1978061055E-03       4    7    1         0.1102011430E-01      0.2163693679E-01
          0                 4           1             4    7     1      -0.7870393887E-05       4    7    1        -0.4507233555E-03      0.8849871017E-03

    ------------------------------------------------
       NWT REQUIRED            4 OUTER ITERATIONS 
       AND A TOTAL OF          7 INNER ITERATIONS.
    ------------------------------------------------

 NO OUTPUT CONTROL FOR STRESS PERIOD   24   TIME STEP    4
 
 SOLVING FOR HEAD 
                                                   Max.-Head-Change                         Max.-Flux-Residual
  Residual-Control   Outer-Iter.   Inner-Iter.     Column Row Layer    Maximum-Head-Change  Column Row Layer    Maximum-Flux-Residual          L2-NORM 
          0                 1           2             4    7     1       0.2943555372E-01       4    7    1         0.1551776983E+01      0.3075080611E+01
          0                 2           2             4    7     1      -0.2862778767E-02       4    7    1        -0.1551789454E+00      0.3050386542E+00
          0                 3           2             4    7     1       0.1949606915E-03       4    7    1         0.1086251892E-01      0.2131375428E-01
          0                 4           1             4    7     1      -0.7757157833E-05       4    7    1        -0.4442777083E-03      0.8717815710E-03

    ------------------------------------------------
       NWT REQUIRED            4 OUTER ITERATIONS 
       AND A TOTAL OF          7 INNER ITERATIONS.
    ------------------------------------------------

 NO OUTPUT CONTROL FOR STRESS PERIOD   24   TIME STEP    5
 
 SOLVING FOR HEAD 
                                                   Max.-Head-Change                         Max.-Flux-Residual
  Residual-Control   Outer-Iter.   Inner-Iter.     Column Row Layer    Maximum-Head-Change  Column Row Layer    Maximum-Flux-Residual          L2-NORM 
          0                 1           2             4    7     1       0.2901043960E-01       4    7    1         0.1529465585E+01      0.3032630756E+01
          0                 2           2             4    7     1      -0.2821413485E-02       4    7    1        -0.1529477821E+00      0.3005893562E+00
          0                 3           2             4    7     1       0.1921442782E-03       4    7    1         0.1070633763E-01      0.2100051527E-01
          0                 4           1             4    7     1      -0.7645077199E-05       4    7    1        -0.4378898725E-03      0.8590151844E-03

    ------------------------------------------------
       NWT REQUIRED            4 OUTER ITERATIONS 
       AND A TOTAL OF          7 INNER ITERATIONS.
    ------------------------------------------------

 NO OUTPUT CONTROL FOR STRESS PERIOD   24   TIME STEP    6
 
 SOLVING FOR HEAD 
                                                   Max.-Head-Change                         Max.-Flux-Residual
  Residual-Control   Outer-Iter.   Inner-Iter.     Column Row Layer    Maximum-Head-Change  Column Row Layer    Maximum-Flux-Residual          L2-NORM 
          0                 1           2             4    7     1       0.2858995600E-01       4    7    1         0.1507373217E+01      0.2991357278E+01
          0                 2           2             4    7     1      -0.2780500297E-02       4    7    1        -0.1507385207E+00      0.2962696999E+00
          0                 3           2             4    7     1       0.1893585988E-03       4    7    1         0.1055168951E-01      0.2069643970E-01
          0                 4           1             4    7     1      -0.7534221063E-05       4    7    1        -0.4315647423E-03      0.8465036611E-03

    ------------------------------------------------
       NWT REQUIRED            4 OUTER ITERATIONS 
       AND A TOTAL OF          7 INNER ITERATIONS.
    ------------------------------------------------

 NO OUTPUT CONTROL FOR STRESS PERIOD   24   TIME STEP    7
 
 SOLVING FOR HEAD 
                                                   Max.-Head-Change                         Max.-Flux-Residual
  Residual-Control   Outer-Iter.   Inner-Iter.     Column Row Layer    Maximum-Head-Change  Column Row Layer    Maximum-Flux-Residual          L2-NORM 
          0                 1           2             4    7     1       0.2817444376E-01       4    7    1         0.1485520836E+01      0.2951196231E+01
          0                 2           2             4    7     1      -0.2740072207E-02       4    7    1        -0.1485532573E+00      0.2920736317E+00
          0                 3           2             4    7     1       0.1866059046E-03       4    7    1         0.1039872126E-01      0.2040118130E-01
          0                 4           1             4    7     1      -0.7424679224E-05       4    7    1        -0.4253083334E-03      0.8344261104E-03

    ------------------------------------------------
       NWT REQUIRED            4 OUTER ITERATIONS 
       AND A TOTAL OF          7 INNER ITERATIONS.
    ------------------------------------------------

 NO OUTPUT CONTROL FOR STRESS PERIOD   24   TIME STEP    8
 
 SOLVING FOR HEAD 
                                                   Max.-Head-Change                         Max.-Flux-Residual
  Residual-Control   Outer-Iter.   Inner-Iter.     Column Row Layer    Maximum-Head-Change  Column Row Layer    Maximum-Flux-Residual          L2-NORM 
          0                 1           2             4    7     1       0.2776445295E-01       4    7    1         0.1463940821E+01      0.2912075019E+01
          0                 2           2             4    7     1      -0.2700182579E-02       4    7    1        -0.1463952299E+00      0.2879939198E+00
          0                 3           2             4    7     1       0.1838898342E-03       4    7    1         0.1024765952E-01      0.2011419888E-01
          0                 4           1             4    7     1      -0.7316596281E-05       4    7    1        -0.4191299133E-03      0.8226817576E-03

    ------------------------------------------------
       NWT REQUIRED            4 OUTER ITERATIONS 
       AND A TOTAL OF          7 INNER ITERATIONS.
    ------------------------------------------------

 NO OUTPUT CONTROL FOR STRESS PERIOD   24   TIME STEP    9
 
 SOLVING FOR HEAD 
                                                   Max.-Head-Change                         Max.-Flux-Residual
  Residual-Control   Outer-Iter.   Inner-Iter.     Column Row Layer    Maximum-Head-Change  Column Row Layer    Maximum-Flux-Residual          L2-NORM 
          0                 1           2             4    7     1       0.2736006867E-01       4    7    1         0.1442639656E+01      0.2873937630E+01
          0                 2           2             4    7     1      -0.2660839568E-02       4    7    1        -0.1442650872E+00      0.2840249254E+00
          0                 3           2             4    7     1       0.1812109464E-03       4    7    1         0.1009854970E-01      0.1983508546E-01
          0                 4           1             4    7     1      -0.7209993765E-05       4    7    1        -0.4130313127E-03      0.8112617756E-03

    ------------------------------------------------
       NWT REQUIRED            4 OUTER ITERATIONS 
       AND A TOTAL OF          7 INNER ITERATIONS.
    ------------------------------------------------

 NO OUTPUT CONTROL FOR STRESS PERIOD   24   TIME STEP   10
 
 SOLVING FOR HEAD 
                                                   Max.-Head-Change                         Max.-Flux-Residual
  Residual-Control   Outer-Iter.   Inner-Iter.     Column Row Layer    Maximum-Head-Change  Column Row Layer    Maximum-Flux-Residual          L2-NORM 
          0                 1           2             4    7     1       0.2696133413E-01       4    7    1         0.1421621759E+01      0.2836717450E+01
          0                 2           2             4    7     1      -0.2622047258E-02       4    7    1        -0.1421632710E+00      0.2801596718E+00
          0                 3           2             4    7     1       0.1785695238E-03       4    7    1         0.9951422755E-02      0.1956337651E-01
          0                 4           1             4    7     1      -0.7104883302E-05       4    7    1        -0.4070138177E-03      0.8001484549E-03

    ------------------------------------------------
       NWT REQUIRED            4 OUTER ITERATIONS 
       AND A TOTAL OF          7 INNER ITERATIONS.
    ------------------------------------------------

 NO OUTPUT CONTROL FOR STRESS PERIOD   24   TIME STEP   11
 
 SOLVING FOR HEAD 
                                                   Max.-Head-Change                         Max.-Flux-Residual
  Residual-Control   Outer-Iter.   Inner-Iter.     Column Row Layer    Maximum-Head-Change  Column Row Layer    Maximum-Flux-Residual          L2-NORM 
          0                 1           2             4    7     1       0.2656866813E-01       4    7    1         0.1400911426E+01      0.2800379622E+01
          0                 2           2             4    7     1      -0.2583846280E-02       4    7    1        -0.1400922112E+00      0.2763942797E+00
          0                 3           2             4    7     1       0.1759683365E-03       4    7    1         0.9806448773E-02      0.1929875649E-01
          0                 4           1             4    7     1      -0.7001374724E-05       4    7    1        -0.4010843704E-03      0.7893253566E-03

    ------------------------------------------------
       NWT REQUIRED            4 OUTER ITERATIONS 
       AND A TOTAL OF          7 INNER ITERATIONS.
    ------------------------------------------------

 NO OUTPUT CONTROL FOR STRESS PERIOD   24   TIME STEP   12
 
 SOLVING FOR HEAD 
                                                   Max.-Head-Change                         Max.-Flux-Residual
  Residual-Control   Outer-Iter.   Inner-Iter.     Column Row Layer    Maximum-Head-Change  Column Row Layer    Maximum-Flux-Residual          L2-NORM 
          0                 1           2             4    7     1       0.2618203599E-01       4    7    1         0.1380508328E+01      0.2764874807E+01
          0                 2           2             4    7     1      -0.2546233170E-02       4    7    1        -0.1380518750E+00      0.2727234719E+00
          0                 3           2             4    7     1       0.1734071512E-03       4    7    1         0.9663625435E-02      0.1904086021E-01
          0                 4           1             4    7     1      -0.6899458822E-05       4    7    1        -0.3952428792E-03      0.7787751714E-03

    ------------------------------------------------
       NWT REQUIRED            4 OUTER ITERATIONS 
       AND A TOTAL OF          7 INNER ITERATIONS.
    ------------------------------------------------

 NO OUTPUT CONTROL FOR STRESS PERIOD   24   TIME STEP   13
 
 SOLVING FOR HEAD 
                                                   Max.-Head-Change                         Max.-Flux-Residual
  Residual-Control   Outer-Iter.   Inner-Iter.     Column Row Layer    Maximum-Head-Change  Column Row Layer    Maximum-Flux-Residual          L2-NORM 
          0                 1           2             4    7     1       0.2580138113E-01       4    7    1         0.1360410672E+01      0.2730161651E+01
          0                 2           2             4    7     1      -0.2509202336E-02       4    7    1        -0.1360420831E+00      0.2691426149E+00
          0                 3           2             4    7     1       0.1708855898E-03       4    7    1         0.9522940175E-02      0.1878935979E-01
          0                 4           1             4    7     1      -0.6799120513E-05       4    7    1        -0.3894888500E-03      0.7685004175E-03

    ------------------------------------------------
       NWT REQUIRED            4 OUTER ITERATIONS 
       AND A TOTAL OF          7 INNER ITERATIONS.
    ------------------------------------------------

 NO OUTPUT CONTROL FOR STRESS PERIOD   24   TIME STEP   14
 
 SOLVING FOR HEAD 
                                                   Max.-Head-Change                         Max.-Flux-Residual
  Residual-Control   Outer-Iter.   Inner-Iter.     Column Row Layer    Maximum-Head-Change  Column Row Layer    Maximum-Flux-Residual          L2-NORM 
          0                 1           2             4    7     1       0.2542716223E-01       4    7    1         0.1340644932E+01      0.2696218607E+01
          0                 2           2             4    7     1      -0.2472798303E-02       4    7    1        -0.1340654831E+00      0.2656488557E+00
          0                 3           2             4    7     1       0.1684066877E-03       4    7    1         0.9384578367E-02      0.1854404667E-01
          0                 4           1             4    7     1      -0.6700480336E-05       4    7    1        -0.3838298328E-03      0.7584506419E-03

    ------------------------------------------------
       NWT REQUIRED            4 OUTER ITERATIONS 
       AND A TOTAL OF          7 INNER ITERATIONS.
    ------------------------------------------------

 NO OUTPUT CONTROL FOR STRESS PERIOD   24   TIME STEP   15
 
 SOLVING FOR HEAD 
                                                   Max.-Head-Change                         Max.-Flux-Residual
  Residual-Control   Outer-Iter.   Inner-Iter.     Column Row Layer    Maximum-Head-Change  Column Row Layer    Maximum-Flux-Residual          L2-NORM 
          0                 1           2             4    7     1       0.2505912286E-01       4    7    1         0.1321198142E+01      0.2663008120E+01
          0                 2           2             4    7     1      -0.2436996074E-02       4    7    1        -0.1321207783E+00      0.2622381745E+00
          0                 3           2             4    7     1       0.1659687443E-03       4    7    1         0.9248449229E-02      0.1830463687E-01
          0                 4           1             4    7     1      -0.6603470481E-05       4    7    1        -0.3782621320E-03      0.7486481350E-03

    ------------------------------------------------
       NWT REQUIRED            4 OUTER ITERATIONS 
       AND A TOTAL OF          7 INNER ITERATIONS.
    ------------------------------------------------

 NO OUTPUT CONTROL FOR STRESS PERIOD   24   TIME STEP   16
 
 SOLVING FOR HEAD 
                                                   Max.-Head-Change                         Max.-Flux-Residual
  Residual-Control   Outer-Iter.   Inner-Iter.     Column Row Layer    Maximum-Head-Change  Column Row Layer    Maximum-Flux-Residual          L2-NORM 
          0                 1           2             4    7     1       0.2469726966E-01       4    7    1         0.1302071710E+01      0.2630487567E+01
          0                 2           2             4    7     1      -0.2401796226E-02       4    7    1        -0.1302081098E+00      0.2589057122E+00
          0                 3           2             4    7     1       0.1635718008E-03       4    7    1         0.9114562609E-02      0.1807079153E-01
          0                 4           1             4    7     1      -0.6508092791E-05       4    7    1        -0.3727861683E-03      0.7390875141E-03

    ------------------------------------------------
       NWT REQUIRED            4 OUTER ITERATIONS 
       AND A TOTAL OF          7 INNER ITERATIONS.
    ------------------------------------------------

 NO OUTPUT CONTROL FOR STRESS PERIOD   24   TIME STEP   17
 
 SOLVING FOR HEAD 
                                                   Max.-Head-Change                         Max.-Flux-Residual
  Residual-Control   Outer-Iter.   Inner-Iter.     Column Row Layer    Maximum-Head-Change  Column Row Layer    Maximum-Flux-Residual          L2-NORM 
          0                 1           2             4    7     1       0.2434172431E-01       4    7    1         0.1283273338E+01      0.2598647092E+01
          0                 2           2             4    7     1      -0.2367210525E-02       4    7    1        -0.1283282476E+00      0.2556497920E+00
          0                 3           2             4    7     1       0.1612166607E-03       4    7    1         0.8982972426E-02      0.1784236242E-01
          0                 4           1             4    7     1      -0.6414379039E-05       4    7    1        -0.3674041150E-03      0.7297240480E-03

    ------------------------------------------------
       NWT REQUIRED            4 OUTER ITERATIONS 
       AND A TOTAL OF          7 INNER ITERATIONS.
    ------------------------------------------------

 NO OUTPUT CONTROL FOR STRESS PERIOD   24   TIME STEP   18
 
 SOLVING FOR HEAD 
                                                   Max.-Head-Change                         Max.-Flux-Residual
  Residual-Control   Outer-Iter.   Inner-Iter.     Column Row Layer    Maximum-Head-Change  Column Row Layer    Maximum-Flux-Residual          L2-NORM 
          0                 1           2             4    7     1       0.2399231875E-01       4    7    1         0.1264794633E+01      0.2567452566E+01
          0                 2           2             4    7     1      -0.2333222576E-02       4    7    1        -0.1264803526E+00      0.2524665830E+00
          0                 3           2             4    7     1       0.1589022096E-03       4    7    1         0.8853619964E-02      0.1761913446E-01
          0                 4           1             4    7     1      -0.6322285133E-05       4    7    1        -0.3621136036E-03      0.7206153416E-03

    ------------------------------------------------
       NWT REQUIRED            4 OUTER ITERATIONS 
       AND A TOTAL OF          7 INNER ITERATIONS.
    ------------------------------------------------

 NO OUTPUT CONTROL FOR STRESS PERIOD   24   TIME STEP   19
 
 SOLVING FOR HEAD 
                                                   Max.-Head-Change                         Max.-Flux-Residual
  Residual-Control   Outer-Iter.   Inner-Iter.     Column Row Layer    Maximum-Head-Change  Column Row Layer    Maximum-Flux-Residual          L2-NORM 
          0                 1           2             4    7     1       0.2364928522E-01       4    7    1         0.1246648943E+01      0.2536892386E+01
          0                 2           2             4    7     1      -0.2299854928E-02       4    7    1        -0.1246657596E+00      0.2493545519E+00
          0                 3           2             4    7     1       0.1566299834E-03       4    7    1         0.8726598621E-02      0.1740093425E-01
          0                 4           1             4    7     1      -0.6231871399E-05       4    7    1        -0.3569184141E-03      0.7116862081E-03

    ------------------------------------------------
       NWT REQUIRED            4 OUTER ITERATIONS 
       AND A TOTAL OF          7 INNER ITERATIONS.
    ------------------------------------------------

 NO OUTPUT CONTROL FOR STRESS PERIOD   24   TIME STEP   20
 
 SOLVING FOR HEAD 
                                                   Max.-Head-Change                         Max.-Flux-Residual
  Residual-Control   Outer-Iter.   Inner-Iter.     Column Row Layer    Maximum-Head-Change  Column Row Layer    Maximum-Flux-Residual          L2-NORM 
          0                 1           2             4    7     1       0.2331228496E-01       4    7    1         0.1228818900E+01      0.2506929628E+01
          0                 2           2             4    7     1      -0.2267074566E-02       4    7    1        -0.1228827318E+00      0.2463091652E+00
          0                 3           2             4    7     1       0.1543977366E-03       4    7    1         0.8601786847E-02      0.1718746394E-01
          0                 4           1             4    7     1      -0.6143049304E-05       4    7    1        -0.3518136109E-03      0.7029633874E-03

    ------------------------------------------------
       NWT REQUIRED            4 OUTER ITERATIONS 
       AND A TOTAL OF          7 INNER ITERATIONS.
    ------------------------------------------------

 NO OUTPUT CONTROL FOR STRESS PERIOD   24   TIME STEP   21
 
 SOLVING FOR HEAD 
                                                   Max.-Head-Change                         Max.-Flux-Residual
  Residual-Control   Outer-Iter.   Inner-Iter.     Column Row Layer    Maximum-Head-Change  Column Row Layer    Maximum-Flux-Residual          L2-NORM 
          0                 1           2             4    7     1       0.2298139474E-01       4    7    1         0.1211309003E+01      0.2477554257E+01
          0                 2           2             4    7     1      -0.2234888932E-02       4    7    1        -0.1211317191E+00      0.2433292234E+00
          0                 3           2             4    7     1       0.1522059767E-03       4    7    1         0.8479216127E-02      0.1697860501E-01
          0                 4           1             4    7     1      -0.6055838650E-05       4    7    1        -0.3468004695E-03      0.6944116468E-03

    ------------------------------------------------
       NWT REQUIRED            4 OUTER ITERATIONS 
       AND A TOTAL OF          7 INNER ITERATIONS.
    ------------------------------------------------

 NO OUTPUT CONTROL FOR STRESS PERIOD   24   TIME STEP   22
 
 SOLVING FOR HEAD 
                                                   Max.-Head-Change                         Max.-Flux-Residual
  Residual-Control   Outer-Iter.   Inner-Iter.     Column Row Layer    Maximum-Head-Change  Column Row Layer    Maximum-Flux-Residual          L2-NORM 
          0                 1           2             4    7     1       0.2265653972E-01       4    7    1         0.1194115880E+01      0.2448754118E+01
          0                 2           2             4    7     1      -0.2203290698E-02       4    7    1        -0.1194123844E+00      0.2404129213E+00
          0                 3           2             4    7     1       0.1500542057E-03       4    7    1         0.8358862862E-02      0.1677429313E-01
          0                 4           1             4    7     1      -0.5970218944E-05       4    7    1        -0.3418779979E-03      0.6860542280E-03

    ------------------------------------------------
       NWT REQUIRED            4 OUTER ITERATIONS 
       AND A TOTAL OF          7 INNER ITERATIONS.
    ------------------------------------------------

 NO OUTPUT CONTROL FOR STRESS PERIOD   24   TIME STEP   23
 
 SOLVING FOR HEAD 
                                                   Max.-Head-Change                         Max.-Flux-Residual
  Residual-Control   Outer-Iter.   Inner-Iter.     Column Row Layer    Maximum-Head-Change  Column Row Layer    Maximum-Flux-Residual          L2-NORM 
          0                 1           2             4    7     1       0.2233777100E-01       4    7    1         0.1177243008E+01      0.2420504317E+01
          0                 2           2             4    7     1      -0.2172284803E-02       4    7    1        -0.1177250752E+00      0.2375572899E+00
          0                 3           2             4    7     1       0.1479427612E-03       4    7    1         0.8240751360E-02      0.1657424870E-01
          0                 4           1             4    7     1      -0.5886204348E-05       4    7    1        -0.3370472296E-03      0.6778682539E-03

    ------------------------------------------------
       NWT REQUIRED            4 OUTER ITERATIONS 
       AND A TOTAL OF          7 INNER ITERATIONS.
    ------------------------------------------------

 NO OUTPUT CONTROL FOR STRESS PERIOD   24   TIME STEP   24
 
 SOLVING FOR HEAD 
                                                   Max.-Head-Change                         Max.-Flux-Residual
  Residual-Control   Outer-Iter.   Inner-Iter.     Column Row Layer    Maximum-Head-Change  Column Row Layer    Maximum-Flux-Residual          L2-NORM 
          0                 1           2             4    7     1       0.2202485619E-01       4    7    1         0.1160678331E+01      0.2392778396E+01
          0                 2           2             4    7     1      -0.2141848618E-02       4    7    1        -0.1160685861E+00      0.2347593815E+00
          0                 3           2             4    7     1       0.1458701039E-03       4    7    1         0.8124797307E-02      0.1637828621E-01
          0                 4           1             4    7     1      -0.5803733842E-05       4    7    1        -0.3323047117E-03      0.6698919046E-03

    ------------------------------------------------
       NWT REQUIRED            4 OUTER ITERATIONS 
       AND A TOTAL OF          7 INNER ITERATIONS.
    ------------------------------------------------

 NO OUTPUT CONTROL FOR STRESS PERIOD   24   TIME STEP   25
 
 SOLVING FOR HEAD 
                                                   Max.-Head-Change                         Max.-Flux-Residual
  Residual-Control   Outer-Iter.   Inner-Iter.     Column Row Layer    Maximum-Head-Change  Column Row Layer    Maximum-Flux-Residual          L2-NORM 
          0                 1           2             4    7     1       0.2171770474E-01       4    7    1         0.1144417154E+01      0.2365577607E+01
          0                 2           2             4    7     1      -0.2111973303E-02       4    7    1        -0.1144424476E+00      0.2320189599E+00
          0                 3           2             4    7     1       0.1438356312E-03       4    7    1         0.8010967751E-02      0.1618641190E-01
          0                 4           1             4    7     1      -0.5722782676E-05       4    7    1        -0.3276490736E-03      0.6620092450E-03

    ------------------------------------------------
       NWT REQUIRED            4 OUTER ITERATIONS 
       AND A TOTAL OF          7 INNER ITERATIONS.
    ------------------------------------------------

 NO OUTPUT CONTROL FOR STRESS PERIOD   24   TIME STEP   26
 
 SOLVING FOR HEAD 
                                                   Max.-Head-Change                         Max.-Flux-Residual
  Residual-Control   Outer-Iter.   Inner-Iter.     Column Row Layer    Maximum-Head-Change  Column Row Layer    Maximum-Flux-Residual          L2-NORM 
          0                 1           2             4    7     1       0.2141622024E-01       4    7    1         0.1128454783E+01      0.2338875978E+01
          0                 2           2             4    7     1      -0.2082649448E-02       4    7    1        -0.1128461904E+00      0.2293328976E+00
          0                 3           2             4    7     1       0.1418387044E-03       4    7    1         0.7899229880E-02      0.1599837967E-01
          0                 4           1             4    7     1      -0.5643325866E-05       4    7    1        -0.3230789978E-03      0.6543179534E-03

    ------------------------------------------------
       NWT REQUIRED            4 OUTER ITERATIONS 
       AND A TOTAL OF          7 INNER ITERATIONS.
    ------------------------------------------------

 NO OUTPUT CONTROL FOR STRESS PERIOD   24   TIME STEP   27
 
 SOLVING FOR HEAD 
                                                   Max.-Head-Change                         Max.-Flux-Residual
  Residual-Control   Outer-Iter.   Inner-Iter.     Column Row Layer    Maximum-Head-Change  Column Row Layer    Maximum-Flux-Residual          L2-NORM 
          0                 1           2             4    7     1       0.2112043582E-01       4    7    1         0.1112793579E+01      0.2312665347E+01
          0                 2           2             4    7     1      -0.2053880269E-02       4    7    1        -0.1112800503E+00      0.2267002866E+00
          0                 3           2             4    7     1       0.1398795423E-03       4    7    1         0.7789600227E-02      0.1581411434E-01
          0                 4           1             4    7     1      -0.5565371586E-05       4    7    1        -0.3185951182E-03      0.6467878259E-03

    ------------------------------------------------
       NWT REQUIRED            4 OUTER ITERATIONS 
       AND A TOTAL OF          7 INNER ITERATIONS.
    ------------------------------------------------

 NO OUTPUT CONTROL FOR STRESS PERIOD   24   TIME STEP   28
 
 SOLVING FOR HEAD 
                                                   Max.-Head-Change                         Max.-Flux-Residual
  Residual-Control   Outer-Iter.   Inner-Iter.     Column Row Layer    Maximum-Head-Change  Column Row Layer    Maximum-Flux-Residual          L2-NORM 
          0                 1           2             4    7     1       0.2083024651E-01       4    7    1         0.1097427905E+01      0.2286934405E+01
          0                 2           2             4    7     1      -0.2025655513E-02       4    7    1        -0.1097434637E+00      0.2241194156E+00
          0                 3           2             4    7     1       0.1379574485E-03       4    7    1         0.7682039303E-02      0.1563350138E-01
          0                 4           1             4    7     1      -0.5488892782E-05       4    7    1        -0.3141958771E-03      0.6393941455E-03

    ------------------------------------------------
       NWT REQUIRED            4 OUTER ITERATIONS 
       AND A TOTAL OF          7 INNER ITERATIONS.
    ------------------------------------------------

 NO OUTPUT CONTROL FOR STRESS PERIOD   24   TIME STEP   29
 
 SOLVING FOR HEAD 
                                                   Max.-Head-Change                         Max.-Flux-Residual
  Residual-Control   Outer-Iter.   Inner-Iter.     Column Row Layer    Maximum-Head-Change  Column Row Layer    Maximum-Flux-Residual          L2-NORM 
          0                 1           2             4    7     1       0.2054541051E-01       4    7    1         0.1082344963E+01      0.2261665809E+01
          0                 2           2             4    7     1      -0.1997951642E-02       4    7    1        -0.1082351509E+00      0.2215881948E+00
          0                 3           2             4    7     1       0.1360708202E-03       4    7    1         0.7576457542E-02      0.1545640216E-01
          0                 4           1             4    7     1      -0.5413825212E-05       4    7    1        -0.3098775771E-03      0.6321474893E-03

    ------------------------------------------------
       NWT REQUIRED            4 OUTER ITERATIONS 
       AND A TOTAL OF          7 INNER ITERATIONS.
    ------------------------------------------------

 NO OUTPUT CONTROL FOR STRESS PERIOD   24   TIME STEP   30



 STREAM LISTING     PERIOD     24   STEP       30

 LAYER ROW COL. STREAM  RCH.  FLOW INTO     FLOW TO   FLOW OUT OF   OVRLND.     DIRECT     STREAM       STREAM     STREAM     STREAM   STREAMBED  STREAMBED
                SEG.NO.  NO.  STRM. RCH.    AQUIFER    STRM. RCH.    RUNOFF     PRECIP       ET          HEAD       DEPTH      WIDTH   CONDCTNC.   GRADIENT

   1    1    1     1     1    1.5750E+01  1.9239E-01   1.5558E+01  0.000E+00  0.000E+00  0.000E+00  1.09407E+03  1.025E+00  1.062E+01  4.780E-02  1.342E+00
   1    2    2     1     2    1.5558E+01  2.9660E-01   1.5261E+01  0.000E+00  0.000E+00  0.000E+00  1.08908E+03  1.020E+00  1.054E+01  7.378E-02  1.340E+00
   1    3    3     1     3    1.5261E+01  2.5164E-01   1.5010E+01  0.000E+00  0.000E+00  0.000E+00  1.08343E+03  1.015E+00  1.045E+01  6.268E-02  1.338E+00
   1    3    4     1     4    1.5010E+01  2.3064E-01   1.4779E+01  0.000E+00  0.000E+00  0.000E+00  1.07842E+03  1.010E+00  1.036E+01  5.752E-02  1.337E+00
   1    4    5     2     1    1.2779E+01  2.9653E-01   1.2482E+01  0.000E+00  0.000E+00  0.000E+00  1.07274E+03  8.017E-01  1.200E+01  7.800E-02  1.267E+00
   1    5    6     2     2    1.2482E+01  2.2750E-01   1.2255E+01  0.000E+00  0.000E+00  0.000E+00  1.06730E+03  7.917E-01  1.200E+01  6.000E-02  1.264E+00
   1    6    6     2     3    1.2255E+01  2.2697E-01   1.2028E+01  0.000E+00  0.000E+00  0.000E+00  1.06258E+03  7.829E-01  1.200E+01  6.000E-02  1.261E+00
   1    7    6     2     4    1.2028E+01  2.2645E-01   1.1802E+01  0.000E+00  0.000E+00  0.000E+00  1.05785E+03  7.741E-01  1.200E+01  6.000E-02  1.258E+00
   1    8    6     2     5    1.1802E+01  2.2591E-01   1.1576E+01  0.000E+00  0.000E+00  0.000E+00  1.05312E+03  7.652E-01  1.200E+01  6.000E-02  1.255E+00
   1    3    5     3     1    2.0000E+00  2.8252E-01   1.7175E+00  0.000E+00  0.000E+00  0.000E+00  1.07555E+03  1.909E+00  9.636E+00  7.227E-02  1.955E+00
   1    3    6     3     2    1.7175E+00  2.4905E-01   1.4684E+00  0.000E+00  0.000E+00  0.000E+00  1.07264E+03  1.727E+00  8.909E+00  6.682E-02  1.864E+00
   1    3    7     3     3    1.4684E+00  1.9718E-01   1.2712E+00  0.000E+00  0.000E+00  0.000E+00  1.06987E+03  1.555E+00  8.218E+00  5.547E-02  1.777E+00
   1    4    8     3     4    1.2712E+00  2.2567E-01   1.0456E+00  0.000E+00  0.000E+00  0.000E+00  1.06682E+03  1.364E+00  7.455E+00  6.709E-02  1.682E+00
   1    5    8     3     5    1.0456E+00  1.5790E-01   8.8768E-01  0.000E+00  0.000E+00  0.000E+00  1.06362E+03  1.164E+00  6.655E+00  4.991E-02  1.582E+00
   1    6    8     3     6    8.8768E-01  5.5980E-02   8.3170E-01  0.000E+00  0.000E+00  0.000E+00  1.06158E+03  1.036E+00  6.145E+00  1.844E-02  1.518E+00
   1    5   10     4     1    1.0000E+01  9.0919E-02   9.9091E+00  0.000E+00  0.000E+00  0.000E+00  1.07836E+03  6.368E-01  1.000E+01  2.500E-02  1.212E+00
   1    5    9     4     2    9.9091E+00  1.8158E-01   9.7275E+00  0.000E+00  0.000E+00  0.000E+00  1.07154E+03  6.315E-01  1.000E+01  5.000E-02  1.211E+00
   1    6    8     4     3    9.7275E+00  1.2689E-01   9.6006E+00  0.000E+00  0.000E+00  0.000E+00  1.06381E+03  6.256E-01  1.000E+01  3.500E-02  1.209E+00
   1    6    8     5     1    1.0432E+01  2.2686E-01   1.0205E+01  0.000E+00  0.000E+00  0.000E+00  1.05868E+03  6.790E-01  1.542E+01  6.166E-02  1.226E+00
   1    7    7     5     2    1.0205E+01  2.7894E-01   9.9265E+00  0.000E+00  0.000E+00  0.000E+00  1.05417E+03  6.732E-01  1.519E+01  7.594E-02  1.224E+00
   1    8    7     5     3    9.9265E+00  1.9221E-01   9.7343E+00  0.000E+00  0.000E+00  0.000E+00  1.04992E+03  6.676E-01  1.497E+01  5.241E-02  1.223E+00
   1    8    6     5     4    9.7343E+00  1.3577E-01   9.5985E+00  0.000E+00  0.000E+00  0.000E+00  1.04691E+03  6.637E-01  1.482E+01  3.706E-02  1.221E+00
   1    9    6     6     1    2.1174E+01  2.4608E-01   2.0928E+01  0.000E+00  0.000E+00  0.000E+00  1.04383E+03  1.101E+00  1.200E+01  6.000E-02  1.367E+00
   1   10    7     6     2    2.0928E+01  2.4562E-01   2.0682E+01  0.000E+00  0.000E+00  0.000E+00  1.03928E+03  1.094E+00  1.200E+01  6.000E-02  1.365E+00
   1   11    7     6     3    2.0682E+01  2.4515E-01   2.0437E+01  0.000E+00  0.000E+00  0.000E+00  1.03472E+03  1.086E+00  1.200E+01  6.000E-02  1.362E+00
   1   12    7     6     4    2.0437E+01  2.4469E-01   2.0193E+01  0.000E+00  0.000E+00  0.000E+00  1.03017E+03  1.078E+00  1.200E+01  6.000E-02  1.359E+00
   1   13    7     6     5    2.0193E+01 -1.2662E-02   2.0205E+01  0.000E+00  0.000E+00  0.000E+00  1.02698E+03  1.074E+00  1.200E+01  2.400E-01 -1.759E-02
   1   14    9     7     1    1.5000E+02  1.3392E+00   1.4866E+02  0.000E+00  0.000E+00  0.000E+00  1.03987E+03  2.288E+00  5.529E+01  5.593E-01  7.981E-01
   1   13    8     7     2    1.4866E+02  1.8446E+00   1.4682E+02  0.000E+00  0.000E+00  0.000E+00  1.03478E+03  2.279E+00  5.526E+01  6.148E-01  1.000E+00
   1   13    7     7     3    1.4682E+02  1.4818E+00   1.4533E+02  0.000E+00  0.000E+00  0.000E+00  1.02969E+03  2.270E+00  5.522E+01  5.584E-01  8.845E-01
   1   13    6     8     1    1.6554E+02  9.0941E-01   1.6463E+02  0.000E+00  0.000E+00  0.000E+00  1.02479E+03  2.920E+00  4.234E+01  4.314E-01  7.026E-01
   1   13    5     8     2    1.6463E+02  1.6855E-01   1.6446E+02  0.000E+00  0.000E+00  0.000E+00  1.01854E+03  2.916E+00  4.229E+01  4.309E-01  1.304E-01
   1   13    4     8     3    1.6446E+02 -2.4533E+00   1.6691E+02  0.000E+00  0.000E+00  0.000E+00  1.01230E+03  2.924E+00  4.240E+01  4.320E+00 -1.893E-01
   1   13    3     8     4    1.6691E+02 -3.6569E+00   1.7057E+02  0.000E+00  0.000E+00  0.000E+00  1.00607E+03  2.944E+00  4.269E+01  4.350E+00 -2.802E-01
   1   13    2     8     5    1.7057E+02 -2.5774E+00   1.7315E+02  0.000E+00  0.000E+00  0.000E+00  9.99839E+02  2.964E+00  4.298E+01  4.380E+00 -1.961E-01
   1   13    1     8     6    1.7315E+02 -1.9772E+00   1.7513E+02  0.000E+00  0.000E+00  0.000E+00  9.94854E+02  2.979E+00  4.319E+01  2.641E+00 -2.496E-01
   1    8    6     9     1    0.0000E+00  0.0000E+00   0.0000E+00  0.000E+00  0.000E+00  0.000E+00  1.07875E+03  0.000E+00  4.000E+00  0.000E+00  1.000E+00
   1    8    5     9     2    0.0000E+00  0.0000E+00   0.0000E+00  0.000E+00  0.000E+00  0.000E+00  1.07825E+03  0.000E+00  4.000E+00  0.000E+00  1.000E+00





UNSATURATED ZONE PACKAGE VOLUMETRIC BUDGET FOR  TIME STEP    30 STRESS PERIOD   24
  ------------------------------------------------------------------------------



     CUMULATIVE VOLUMES      L**3       RATES FOR THIS TIME STEP      L**3/T
     ------------------                 ------------------------

           IN:                                      IN:
           ---                                      ---
        INFILTRATION =  1034464015.3967          INFILTRATION =           0.8475

          OUT:                                     OUT:
          ----                                     ----
              UZF ET =   859367165.2974                UZF ET =           0.7500
        UZF RECHARGE =     2237450.1170          UZF RECHARGE =           0.0728

            IN - OUT =   172859399.9824              IN - OUT =       2.4677E-02

          STORAGE:                                 STORAGE:
          --------                                 --------
      STORAGE CHANGE =   172859866.4233        STORAGE CHANGE =       2.4677E-02

 PERCENT DISCREPANCY IS DIFFERENCE BETWEEN IN-OUT MINUS CHANGE IN STORAGE
 DIVIDED BY THE AVERAGE OF IN AND OUT TIMES 100

 PERCENT DISCREPANCY =          -0.00     PERCENT DISCREPANCY =           0.00






1
  VOLUMETRIC BUDGET FOR AGRICULTURAL FIELDS AT  END OF TIME STEP   30, STRESS PERIOD  24
  ------------------------------------------------------------------------------

     CUMULATIVE VOLUMES      L**3       RATES FOR THIS TIME STEP      L**3/T
     ------------------                 ------------------------

           IN:                                      IN:
           ---                                      ---
               AG WELLS  =   391007552.0000                 AG WELLS  =           0.0000
      DIVERSION SEGMENTS =   592111808.0000        DIVERSION SEGMENTS =           0.0000
           GW IRRIGATION =           0.0000             GW IRRIGATION =           0.0000
           SW IRRIGATION =           0.0000             SW IRRIGATION =           0.0000
        SYSTEM LOSSES GW =           0.0000          SYSTEM LOSSES GW =           0.0000
        SYSTEM LOSSES SW =           0.0000          SYSTEM LOSSES SW =           0.0000

                TOTAL IN =   983119360.0000                  TOTAL IN =           0.0000

          OUT:                                     OUT:
          ----                                     ----
               AG WELLS  =           0.0000                 AG WELLS  =           0.0000
      DIVERSION SEGMENTS =           0.0000        DIVERSION SEGMENTS =           0.0000
           GW IRRIGATION =   391007552.0000             GW IRRIGATION =           0.0000
           SW IRRIGATION =   592123584.0000             SW IRRIGATION =           0.0000
        SYSTEM LOSSES GW =           0.0000          SYSTEM LOSSES GW =           0.0000
        SYSTEM LOSSES SW =           0.0000          SYSTEM LOSSES SW =           0.0000

               TOTAL OUT =   983131136.0000                 TOTAL OUT =           0.0000

                IN - OUT =      -11776.0000                  IN - OUT =           0.0000

     PERCENT DISCREPANCY =          -0.00         PERCENT DISCREPANCY =           0.00



1
  VOLUMETRIC BUDGET FOR ENTIRE MODEL AT END OF TIME STEP   30, STRESS PERIOD  24
  ------------------------------------------------------------------------------

     CUMULATIVE VOLUMES      L**3       RATES FOR THIS TIME STEP      L**3/T
     ------------------                 ------------------------

           IN:                                      IN:
           ---                                      ---
             STORAGE     =   612025984.0000               STORAGE     =           6.0877
       CONSTANT HEAD     =           0.0000         CONSTANT HEAD     =           0.0000
     HEAD DEP BOUNDS     =    17311954.0000       HEAD DEP BOUNDS     =           0.2860
      STREAM LEAKAGE     =   722037888.0000        STREAM LEAKAGE     =          11.3012
        UZF RECHARGE     =     2237450.0000          UZF RECHARGE     =       7.2823E-02
               GW ET     =           0.0000                 GW ET     =           0.0000
     SURFACE LEAKAGE     =           0.0000       SURFACE LEAKAGE     =           0.0000
           AG WELLS      =           0.0000             AG WELLS      =           0.0000

                TOTAL IN =  1353613312.0000                  TOTAL IN =          17.7477

          OUT:                                     OUT:
          ----                                     ----
             STORAGE     =   288287328.0000               STORAGE     =           6.7814
       CONSTANT HEAD     =           0.0000         CONSTANT HEAD     =           0.0000
     HEAD DEP BOUNDS     =    17609156.0000       HEAD DEP BOUNDS     =           0.2889
      STREAM LEAKAGE     =   654575488.0000        STREAM LEAKAGE     =          10.6775
        UZF RECHARGE     =           0.0000          UZF RECHARGE     =           0.0000
               GW ET     =     2141481.7500                 GW ET     =           0.0000
     SURFACE LEAKAGE     =           0.0000       SURFACE LEAKAGE     =           0.0000
           AG WELLS      =   391007552.0000             AG WELLS      =           0.0000

               TOTAL OUT =  1353620992.0000                 TOTAL OUT =          17.7477

                IN - OUT =       -7680.0000                  IN - OUT =       5.7220E-06

     PERCENT DISCREPANCY =          -0.00         PERCENT DISCREPANCY =           0.00






         TIME SUMMARY AT END OF TIME STEP   30 IN STRESS PERIOD   24
                    SECONDS     MINUTES      HOURS       DAYS        YEARS
                    -----------------------------------------------------------
   TIME STEP LENGTH  87667.      1461.1      24.352      1.0147     2.77799E-03
 STRESS PERIOD TIME 2.63000E+06  43833.      730.56      30.440     8.33397E-02
         TOTAL TIME 6.05767E+07 1.00961E+06  16827.      701.12      1.9196    
1
1
                            STRESS PERIOD NO.   25, LENGTH =   2630000.    
                            -----------------------------------------------

                              NUMBER OF TIME STEPS =    30

                               MULTIPLIER FOR DELT =     1.000

                            INITIAL TIME STEP SIZE =   87666.66    

 REUSING NON-PARAMETER GHB CELLS FROM LAST STRESS PERIOD

      2 GHB CELLS

 REUSING STREAM SEGMENT DATA FROM LAST STRESS PERIOD



            AREAL INFILTRATION RATE
 READING ON UNIT   19 WITH FORMAT: (FREE)              

            1           2           3           4           5           6           7           8           9          10
 ........................................................................................................................
   1   1.0000E-10  2.0000E-10   0.000       0.000       0.000       0.000       0.000       0.000       0.000       0.000    
   2   2.0000E-10  1.0000E-10  2.0000E-10   0.000       0.000      8.0000E-10  8.0000E-10  5.0000E-10   0.000       0.000    
   3    0.000      5.0000E-10  1.0000E-10  1.0000E-10  8.0000E-10  8.0000E-10  5.0000E-10  5.0000E-10   0.000       0.000    
   4   8.0000E-10  5.0000E-10  1.0000E-10  1.0000E-10  1.0000E-10  1.0000E-10  1.0000E-10  1.0000E-10  2.0000E-10   0.000    
   5   8.0000E-10  5.0000E-10  1.0000E-10  1.0000E-10  1.0000E-10  1.0000E-10  1.0000E-10  1.0000E-10  1.0000E-10  1.0000E-10
   6   8.0000E-10  5.0000E-10  5.0000E-10  2.0000E-10  2.0000E-10  1.0000E-10  1.0000E-10  1.0000E-10  1.0000E-10  5.0000E-10
   7   8.0000E-10  5.0000E-10  5.0000E-10  2.0000E-10  2.0000E-10  1.0000E-10  1.0000E-10  2.0000E-10  2.0000E-10   0.000    
   8    0.000      5.0000E-10  5.0000E-10  2.0000E-10  2.0000E-10  1.0000E-10  1.0000E-10  2.0000E-10  5.0000E-10   0.000    
   9    0.000      5.0000E-10  5.0000E-10  2.0000E-10  2.0000E-10  1.0000E-10  1.0000E-10  2.0000E-10  5.0000E-10   0.000    
  10    0.000      5.0000E-10  5.0000E-10  2.0000E-10  2.0000E-10  1.0000E-10  1.0000E-10  2.0000E-10  5.0000E-10  8.0000E-10
  11    0.000      1.0000E-10  1.0000E-10  1.0000E-10  1.0000E-10  1.0000E-10  1.0000E-10  2.0000E-10  5.0000E-10   0.000    
  12   1.0000E-10  1.0000E-10  1.0000E-10  1.0000E-10  1.0000E-10  1.0000E-10  1.0000E-10  1.0000E-10  2.0000E-10   0.000    
  13   1.0000E-10  1.0000E-10  2.0000E-10  2.0000E-10  2.0000E-10  2.0000E-10  2.0000E-10  1.0000E-10  1.0000E-10   0.000    
  14    0.000      2.0000E-10  5.0000E-10  5.0000E-10  5.0000E-10  5.0000E-10  5.0000E-10  2.0000E-10  1.0000E-10   0.000    
  15    0.000       0.000      8.0000E-10  8.0000E-10  8.0000E-10  8.0000E-10   0.000       0.000       0.000       0.000    

                  ET RATE =  5.000000E-10

 USING ET EXTINCTION DEPTH FROM PREVIOUS STRESS PERIOD. CURRENT PERIOD IS:      25

 USING EXTINCTION WATER CONTENT FROM PREVIOUS STRESS PERIOD. CURRENT PERIOD IS:      25

 USING AIR ENTRY PRESSURE FROM PREVIOUS STRESS PERIOD. CURRENT PERIOD IS:      25

 USING ROOT PRESSURE HEAD FROM PREVIOUS STRESS PERIOD. CURRENT PERIOD IS:      25

 USING ROOT ACTIVITY FROM PREVIOUS STRESS PERIOD. CURRENT PERIOD IS:      25

 PROCESSING AG STRESS PERIOD DATA

 READING AG STRESS PERIOD DATA

 READING IRRIGATION SEGMENT

 READING IRRIGATION WELL

 READING SUPPLEMENTAL WELL

 END PROCESSING AG STRESS PERIOD DATA OPTIONS
 
 SOLVING FOR HEAD 
                                                   Max.-Head-Change                         Max.-Flux-Residual
  Residual-Control   Outer-Iter.   Inner-Iter.     Column Row Layer    Maximum-Head-Change  Column Row Layer    Maximum-Flux-Residual          L2-NORM 
          0                 1           2             4    7     1       0.2026594865E-01       4    7    1         0.1067546929E+01      0.2238058717E+01
          0                 2           2             4    7     1      -0.1970770701E-02       4    7    1        -0.1067553294E+00      0.2192274475E+00
          0                 3           2             4    7     1       0.1342197961E-03       4    7    1         0.7472870174E-02      0.1529116667E-01
          0                 4           1             4    7     1      -0.5340174402E-05       4    7    1        -0.3056408357E-03      0.6253924842E-03

    ------------------------------------------------
       NWT REQUIRED            4 OUTER ITERATIONS 
       AND A TOTAL OF          7 INNER ITERATIONS.
    ------------------------------------------------

 NO OUTPUT CONTROL FOR STRESS PERIOD   25   TIME STEP    1
 
 SOLVING FOR HEAD 
                                                   Max.-Head-Change                         Max.-Flux-Residual
  Residual-Control   Outer-Iter.   Inner-Iter.     Column Row Layer    Maximum-Head-Change  Column Row Layer    Maximum-Flux-Residual          L2-NORM 
          0                 1           2             4    7     1       0.1999174783E-01       4    7    1         0.1053027528E+01      0.2214153204E+01
          0                 2           2             4    7     1      -0.1944101858E-02       4    7    1        -0.1053033717E+00      0.2168558999E+00
          0                 3           1             4    7     1       0.1324036420E-03       4    7    1         0.7371233247E-02      0.1512523187E-01
          0                 4           1             4    7     1      -0.5267913642E-05       4    7    1        -0.3014838846E-03      0.6185954219E-03

    ------------------------------------------------
       NWT REQUIRED            4 OUTER ITERATIONS 
       AND A TOTAL OF          6 INNER ITERATIONS.
    ------------------------------------------------

 NO OUTPUT CONTROL FOR STRESS PERIOD   25   TIME STEP    2
 
 SOLVING FOR HEAD 
                                                   Max.-Head-Change                         Max.-Flux-Residual
  Residual-Control   Outer-Iter.   Inner-Iter.     Column Row Layer    Maximum-Head-Change  Column Row Layer    Maximum-Flux-Residual          L2-NORM 
          0                 1           2             4    7     1       0.1972269856E-01       4    7    1         0.1038780885E+01      0.2190159607E+01
          0                 2           2             4    7     1      -0.1917933814E-02       4    7    1        -0.1038786905E+00      0.2144457470E+00
          0                 3           1             4    7     1       0.1306215851E-03       4    7    1         0.7271505670E-02      0.1495671210E-01
          0                 4           1             4    7     1      -0.5197007474E-05       4    7    1        -0.2974050187E-03      0.6116961323E-03

    ------------------------------------------------
       NWT REQUIRED            4 OUTER ITERATIONS 
       AND A TOTAL OF          6 INNER ITERATIONS.
    ------------------------------------------------

 NO OUTPUT CONTROL FOR STRESS PERIOD   25   TIME STEP    3
 
 SOLVING FOR HEAD 
                                                   Max.-Head-Change                         Max.-Flux-Residual
  Residual-Control   Outer-Iter.   Inner-Iter.     Column Row Layer    Maximum-Head-Change  Column Row Layer    Maximum-Flux-Residual          L2-NORM 
          0                 1           2             4    7     1       0.1945855705E-01       4    7    1         0.1024794002E+01      0.2166548407E+01
          0                 2           2             4    7     1      -0.1892243466E-02       4    7    1        -0.1024799856E+00      0.2120924922E+00
          0                 3           1             4    7     1       0.1288720550E-03       4    7    1         0.7173596450E-02      0.1479217952E-01
          0                 4           1             4    7     1      -0.5127395571E-05       4    7    1        -0.2934005377E-03      0.6049735325E-03

    ------------------------------------------------
       NWT REQUIRED            4 OUTER ITERATIONS 
       AND A TOTAL OF          6 INNER ITERATIONS.
    ------------------------------------------------

 NO OUTPUT CONTROL FOR STRESS PERIOD   25   TIME STEP    4
 
 SOLVING FOR HEAD 
                                                   Max.-Head-Change                         Max.-Flux-Residual
  Residual-Control   Outer-Iter.   Inner-Iter.     Column Row Layer    Maximum-Head-Change  Column Row Layer    Maximum-Flux-Residual          L2-NORM 
          0                 1           2             4    7     1       0.1919948565E-01       4    7    1         0.1011076278E+01      0.2143345801E+01
          0                 2           2             4    7     1      -0.1867046387E-02       4    7    1        -0.1011081971E+00      0.2097823855E+00
          0                 3           1             4    7     1       0.1271561115E-03       4    7    1         0.7077571367E-02      0.1463066320E-01
          0                 4           1             4    7     1      -0.5059119953E-05       4    7    1        -0.2894730840E-03      0.5983405026E-03

    ------------------------------------------------
       NWT REQUIRED            4 OUTER ITERATIONS 
       AND A TOTAL OF          6 INNER ITERATIONS.
    ------------------------------------------------

 NO OUTPUT CONTROL FOR STRESS PERIOD   25   TIME STEP    5
 
 SOLVING FOR HEAD 
                                                   Max.-Head-Change                         Max.-Flux-Residual
  Residual-Control   Outer-Iter.   Inner-Iter.     Column Row Layer    Maximum-Head-Change  Column Row Layer    Maximum-Flux-Residual          L2-NORM 
          0                 1           2             4    7     1       0.1894523661E-01       4    7    1         0.9976140690E+00      0.2120553822E+01
          0                 2           2             4    7     1      -0.1842318457E-02       4    7    1        -0.9976196066E-01      0.2075153050E+00
          0                 3           1             4    7     1       0.1254721137E-03       4    7    1         0.6983334917E-02      0.1447220549E-01
          0                 4           1             4    7     1      -0.4992115920E-05       4    7    1        -0.2856188103E-03      0.5918674440E-03

    ------------------------------------------------
       NWT REQUIRED            4 OUTER ITERATIONS 
       AND A TOTAL OF          6 INNER ITERATIONS.
    ------------------------------------------------

 NO OUTPUT CONTROL FOR STRESS PERIOD   25   TIME STEP    6
 
 SOLVING FOR HEAD 
                                                   Max.-Head-Change                         Max.-Flux-Residual
  Residual-Control   Outer-Iter.   Inner-Iter.     Column Row Layer    Maximum-Head-Change  Column Row Layer    Maximum-Flux-Residual          L2-NORM 
          0                 1           2             4    7     1       0.1869570221E-01       4    7    1         0.9844018891E+00      0.2098151860E+01
          0                 2           2             4    7     1      -0.1818049205E-02       4    7    1        -0.9844072754E-01      0.2052893021E+00
          0                 3           1             4    7     1       0.1238193485E-03       4    7    1         0.6890848713E-02      0.1431664007E-01
          0                 4           1             4    7     1      -0.4926354919E-05       4    7    1        -0.2818361334E-03      0.5855183006E-03

    ------------------------------------------------
       NWT REQUIRED            4 OUTER ITERATIONS 
       AND A TOTAL OF          6 INNER ITERATIONS.
    ------------------------------------------------

 NO OUTPUT CONTROL FOR STRESS PERIOD   25   TIME STEP    7
 
 SOLVING FOR HEAD 
                                                   Max.-Head-Change                         Max.-Flux-Residual
  Residual-Control   Outer-Iter.   Inner-Iter.     Column Row Layer    Maximum-Head-Change  Column Row Layer    Maximum-Flux-Residual          L2-NORM 
          0                 1           2             4    7     1       0.1845091217E-01       4    7    1         0.9714415113E+00      0.2076125757E+01
          0                 2           2             4    7     1      -0.1794241513E-02       4    7    1        -0.9714467511E-01      0.2031027678E+00
          0                 3           1             4    7     1       0.1221980115E-03       4    7    1         0.6800125140E-02      0.1416384394E-01
          0                 4           1             4    7     1      -0.4861844550E-05       4    7    1        -0.2781255357E-03      0.5792732440E-03

    ------------------------------------------------
       NWT REQUIRED            4 OUTER ITERATIONS 
       AND A TOTAL OF          6 INNER ITERATIONS.
    ------------------------------------------------

 NO OUTPUT CONTROL FOR STRESS PERIOD   25   TIME STEP    8
 
 SOLVING FOR HEAD 
                                                   Max.-Head-Change                         Max.-Flux-Residual
  Residual-Control   Outer-Iter.   Inner-Iter.     Column Row Layer    Maximum-Head-Change  Column Row Layer    Maximum-Flux-Residual          L2-NORM 
          0                 1           2             4    7     1       0.1821061885E-01       4    7    1         0.9587197600E+00      0.2054474356E+01
          0                 2           2             4    7     1      -0.1770871266E-02       4    7    1        -0.9587248576E-01      0.2009551133E+00
          0                 3           1             4    7     1       0.1206064619E-03       4    7    1         0.6711071974E-02      0.1401376210E-01
          0                 4           1             4    7     1      -0.4798518844E-05       4    7    1        -0.2744832509E-03      0.5731446803E-03

    ------------------------------------------------
       NWT REQUIRED            4 OUTER ITERATIONS 
       AND A TOTAL OF          6 INNER ITERATIONS.
    ------------------------------------------------

 NO OUTPUT CONTROL FOR STRESS PERIOD   25   TIME STEP    9
 
 SOLVING FOR HEAD 
                                                   Max.-Head-Change                         Max.-Flux-Residual
  Residual-Control   Outer-Iter.   Inner-Iter.     Column Row Layer    Maximum-Head-Change  Column Row Layer    Maximum-Flux-Residual          L2-NORM 
          0                 1           2             4    7     1       0.1797471876E-01       4    7    1         0.9462311554E+00      0.2033183200E+01
          0                 2           2             4    7     1      -0.1747928398E-02       4    7    1        -0.9462361151E-01      0.1988448742E+00
          0                 3           1             4    7     1       0.1190440146E-03       4    7    1         0.6623650895E-02      0.1386630362E-01
          0                 4           1             4    7     1      -0.4736351667E-05       4    7    1        -0.2709077223E-03      0.5670928658E-03

    ------------------------------------------------
       NWT REQUIRED            4 OUTER ITERATIONS 
       AND A TOTAL OF          6 INNER ITERATIONS.
    ------------------------------------------------

 NO OUTPUT CONTROL FOR STRESS PERIOD   25   TIME STEP   10
 
 SOLVING FOR HEAD 
                                                   Max.-Head-Change                         Max.-Flux-Residual
  Residual-Control   Outer-Iter.   Inner-Iter.     Column Row Layer    Maximum-Head-Change  Column Row Layer    Maximum-Flux-Residual          L2-NORM 
          0                 1           2             4    7     1       0.1774324760E-01       4    7    1         0.9339776906E+00      0.2012246353E+01
          0                 2           2             4    7     1      -0.1725416383E-02       4    7    1        -0.9339825165E-01      0.1967716299E+00
          0                 3           1             4    7     1       0.1175109054E-03       4    7    1         0.6537875791E-02      0.1372148665E-01
          0                 4           1             4    7     1      -0.4675351653E-05       4    7    1        -0.2673995155E-03      0.5611806231E-03

    ------------------------------------------------
       NWT REQUIRED            4 OUTER ITERATIONS 
       AND A TOTAL OF          6 INNER ITERATIONS.
    ------------------------------------------------

 NO OUTPUT CONTROL FOR STRESS PERIOD   25   TIME STEP   11
 
 SOLVING FOR HEAD 
                                                   Max.-Head-Change                         Max.-Flux-Residual
  Residual-Control   Outer-Iter.   Inner-Iter.     Column Row Layer    Maximum-Head-Change  Column Row Layer    Maximum-Flux-Residual          L2-NORM 
          0                 1           2             4    7     1       0.1751596466E-01       4    7    1         0.9219464980E+00      0.1991655474E+01
          0                 2           2             4    7     1      -0.1703311792E-02       4    7    1        -0.9219511941E-01      0.1947340784E+00
          0                 3           1             4    7     1       0.1160055398E-03       4    7    1         0.6453656624E-02      0.1357914654E-01
          0                 4           1             4    7     1      -0.4615455713E-05       4    7    1        -0.2639549523E-03      0.5553566832E-03

    ------------------------------------------------
       NWT REQUIRED            4 OUTER ITERATIONS 
       AND A TOTAL OF          6 INNER ITERATIONS.
    ------------------------------------------------

 NO OUTPUT CONTROL FOR STRESS PERIOD   25   TIME STEP   12
 
 SOLVING FOR HEAD 
                                                   Max.-Head-Change                         Max.-Flux-Residual
  Residual-Control   Outer-Iter.   Inner-Iter.     Column Row Layer    Maximum-Head-Change  Column Row Layer    Maximum-Flux-Residual          L2-NORM 
          0                 1           2             4    7     1       0.1729291326E-01       4    7    1         0.9101398170E+00      0.1971411180E+01
          0                 2           2             4    7     1      -0.1681618833E-02       4    7    1        -0.9101443874E-01      0.1927322689E+00
          0                 3           1             4    7     1       0.1145282042E-03       4    7    1         0.6371009057E-02      0.1343933985E-01
          0                 4           1             4    7     1      -0.4556675474E-05       4    7    1        -0.2605746738E-03      0.5496441454E-03

    ------------------------------------------------
       NWT REQUIRED            4 OUTER ITERATIONS 
       AND A TOTAL OF          6 INNER ITERATIONS.
    ------------------------------------------------

 NO OUTPUT CONTROL FOR STRESS PERIOD   25   TIME STEP   13
 
 SOLVING FOR HEAD 
                                                   Max.-Head-Change                         Max.-Flux-Residual
  Residual-Control   Outer-Iter.   Inner-Iter.     Column Row Layer    Maximum-Head-Change  Column Row Layer    Maximum-Flux-Residual          L2-NORM 
          0                 1           2             4    7     1       0.1707385257E-01       4    7    1         0.8985451749E+00      0.1951491807E+01
          0                 2           2             4    7     1      -0.1660314075E-02       4    7    1        -0.8985496233E-01      0.1907639813E+00
          0                 3           1             4    7     1       0.1130773030E-03       4    7    1         0.6289845776E-02      0.1330187979E-01
          0                 4           1             4    7     1      -0.4498946581E-05       4    7    1        -0.2572550804E-03      0.5440131587E-03

    ------------------------------------------------
       NWT REQUIRED            4 OUTER ITERATIONS 
       AND A TOTAL OF          6 INNER ITERATIONS.
    ------------------------------------------------

 NO OUTPUT CONTROL FOR STRESS PERIOD   25   TIME STEP   14
 
 SOLVING FOR HEAD 
                                                   Max.-Head-Change                         Max.-Flux-Residual
  Residual-Control   Outer-Iter.   Inner-Iter.     Column Row Layer    Maximum-Head-Change  Column Row Layer    Maximum-Flux-Residual          L2-NORM 
          0                 1           2             4    7     1       0.1685895316E-01       4    7    1         0.8871721659E+00      0.1931886825E+01
          0                 2           2             4    7     1      -0.1639414105E-02       4    7    1        -0.8871764960E-01      0.1888279171E+00
          0                 3           1             4    7     1       0.1116539668E-03       4    7    1         0.6210233984E-02      0.1316665086E-01
          0                 4           1             4    7     1      -0.4442314854E-05       4    7    1        -0.2539989505E-03      0.5385068472E-03

    ------------------------------------------------
       NWT REQUIRED            4 OUTER ITERATIONS 
       AND A TOTAL OF          6 INNER ITERATIONS.
    ------------------------------------------------

 NO OUTPUT CONTROL FOR STRESS PERIOD   25   TIME STEP   15
 
 SOLVING FOR HEAD 
                                                   Max.-Head-Change                         Max.-Flux-Residual
  Residual-Control   Outer-Iter.   Inner-Iter.     Column Row Layer    Maximum-Head-Change  Column Row Layer    Maximum-Flux-Residual          L2-NORM 
          0                 1           2             4    7     1       0.1664785064E-01       4    7    1         0.8760001920E+00      0.1912614175E+01
          0                 2           2             4    7     1      -0.1618883472E-02       4    7    1        -0.8760044077E-01      0.1869258929E+00
          0                 3           1             4    7     1       0.1102557806E-03       4    7    1         0.6132029441E-02      0.1303384141E-01
          0                 4           1             4    7     1      -0.4386683356E-05       4    7    1        -0.2508003706E-03      0.5330548790E-03

    ------------------------------------------------
       NWT REQUIRED            4 OUTER ITERATIONS 
       AND A TOTAL OF          6 INNER ITERATIONS.
    ------------------------------------------------

 NO OUTPUT CONTROL FOR STRESS PERIOD   25   TIME STEP   16
 
 SOLVING FOR HEAD 
                                                   Max.-Head-Change                         Max.-Flux-Residual
  Residual-Control   Outer-Iter.   Inner-Iter.     Column Row Layer    Maximum-Head-Change  Column Row Layer    Maximum-Flux-Residual          L2-NORM 
          0                 1           2             4    7     1       0.1644059093E-01       4    7    1         0.8650324418E+00      0.1893639078E+01
          0                 2           2             4    7     1      -0.1598726648E-02       4    7    1        -0.8650365460E-01      0.1850544441E+00
          0                 3           1             4    7     1       0.1088830495E-03       4    7    1         0.6055254492E-02      0.1290316076E-01
          0                 4           1             4    7     1      -0.4332065095E-05       4    7    1        -0.2476602610E-03      0.5276962045E-03

    ------------------------------------------------
       NWT REQUIRED            4 OUTER ITERATIONS 
       AND A TOTAL OF          6 INNER ITERATIONS.
    ------------------------------------------------

 NO OUTPUT CONTROL FOR STRESS PERIOD   25   TIME STEP   17
 
 SOLVING FOR HEAD 
                                                   Max.-Head-Change                         Max.-Flux-Residual
  Residual-Control   Outer-Iter.   Inner-Iter.     Column Row Layer    Maximum-Head-Change  Column Row Layer    Maximum-Flux-Residual          L2-NORM 
          0                 1           2             4    7     1       0.1623707665E-01       4    7    1         0.8542639361E+00      0.1874968291E+01
          0                 2           2             4    7     1      -0.1578934142E-02       4    7    1        -0.8542679326E-01      0.1832139007E+00
          0                 3           1             4    7     1       0.1075351275E-03       4    7    1         0.5979874250E-02      0.1277465477E-01
          0                 4           1             4    7     1      -0.4278434284E-05       4    7    1        -0.2445772243E-03      0.5224468385E-03

    ------------------------------------------------
       NWT REQUIRED            4 OUTER ITERATIONS 
       AND A TOTAL OF          6 INNER ITERATIONS.
    ------------------------------------------------

 NO OUTPUT CONTROL FOR STRESS PERIOD   25   TIME STEP   18
 
 SOLVING FOR HEAD 
                                                   Max.-Head-Change                         Max.-Flux-Residual
  Residual-Control   Outer-Iter.   Inner-Iter.     Column Row Layer    Maximum-Head-Change  Column Row Layer    Maximum-Flux-Residual          L2-NORM 
          0                 1           2             4    7     1       0.1603722347E-01       4    7    1         0.8436896270E+00      0.1856596214E+01
          0                 2           2             4    7     1      -0.1559497762E-02       4    7    1        -0.8436935189E-01      0.1814039309E+00
          0                 3           1             4    7     1       0.1062114567E-03       4    7    1         0.5905853440E-02      0.1264830674E-01
          0                 4           1             4    7     1      -0.4225768242E-05       4    7    1        -0.2415497629E-03      0.5172833749E-03

    ------------------------------------------------
       NWT REQUIRED            4 OUTER ITERATIONS 
       AND A TOTAL OF          6 INNER ITERATIONS.
    ------------------------------------------------

 NO OUTPUT CONTROL FOR STRESS PERIOD   25   TIME STEP   19
 
 SOLVING FOR HEAD 
                                                   Max.-Head-Change                         Max.-Flux-Residual
  Residual-Control   Outer-Iter.   Inner-Iter.     Column Row Layer    Maximum-Head-Change  Column Row Layer    Maximum-Flux-Residual          L2-NORM 
          0                 1           2             4    7     1       0.1584080536E-01       4    7    1         0.8332977783E+00      0.1838505697E+01
          0                 2           2             4    7     1      -0.1540395511E-02       4    7    1        -0.8333015685E-01      0.1796225666E+00
          0                 3           1             4    7     1       0.1049105387E-03       4    7    1         0.5833109837E-02      0.1252396911E-01
          0                 4           1             4    7     1      -0.4174007103E-05       4    7    1        -0.2385745408E-03      0.5122178866E-03

    ------------------------------------------------
       NWT REQUIRED            4 OUTER ITERATIONS 
       AND A TOTAL OF          6 INNER ITERATIONS.
    ------------------------------------------------

 NO OUTPUT CONTROL FOR STRESS PERIOD   25   TIME STEP   20
 
 SOLVING FOR HEAD 
                                                   Max.-Head-Change                         Max.-Flux-Residual
  Residual-Control   Outer-Iter.   Inner-Iter.     Column Row Layer    Maximum-Head-Change  Column Row Layer    Maximum-Flux-Residual          L2-NORM 
          0                 1           2             4    7     1       0.1564801648E-01       4    7    1         0.8230987584E+00      0.1820707598E+01
          0                 2           2             4    7     1      -0.1521646282E-02       4    7    1        -0.8231024502E-01      0.1778710701E+00
          0                 3           1             4    7     1       0.1036336608E-03       4    7    1         0.5761716079E-02      0.1240169871E-01
          0                 4           1             4    7     1      -0.4123203020E-05       4    7    1        -0.2356545358E-03      0.5071963843E-03

    ------------------------------------------------
       NWT REQUIRED            4 OUTER ITERATIONS 
       AND A TOTAL OF          6 INNER ITERATIONS.
    ------------------------------------------------

 NO OUTPUT CONTROL FOR STRESS PERIOD   25   TIME STEP   21
 
 SOLVING FOR HEAD 
                                                   Max.-Head-Change                         Max.-Flux-Residual
  Residual-Control   Outer-Iter.   Inner-Iter.     Column Row Layer    Maximum-Head-Change  Column Row Layer    Maximum-Flux-Residual          L2-NORM 
          0                 1           2             4    7     1       0.1545862890E-01       4    7    1         0.8130805471E+00      0.1803178753E+01
          0                 2           2             4    7     1      -0.1503227882E-02       4    7    1        -0.8130841434E-01      0.1761466262E+00
          0                 3           1             4    7     1       0.1023793117E-03       4    7    1         0.5691587985E-02      0.1228131788E-01
          0                 4           1             4    7     1      -0.4073295205E-05       4    7    1        -0.2327862901E-03      0.5022807340E-03

    ------------------------------------------------
       NWT REQUIRED            4 OUTER ITERATIONS 
       AND A TOTAL OF          6 INNER ITERATIONS.
    ------------------------------------------------

 NO OUTPUT CONTROL FOR STRESS PERIOD   25   TIME STEP   22
 
 SOLVING FOR HEAD 
                                                   Max.-Head-Change                         Max.-Flux-Residual
  Residual-Control   Outer-Iter.   Inner-Iter.     Column Row Layer    Maximum-Head-Change  Column Row Layer    Maximum-Flux-Residual          L2-NORM 
          0                 1           2             4    7     1       0.1527269374E-01       4    7    1         0.8032460529E+00      0.1785926238E+01
          0                 2           2             4    7     1      -0.1485145293E-02       4    7    1        -0.8032495567E-01      0.1744501767E+00
          0                 3           1             4    7     1       0.1011478310E-03       4    7    1         0.5622745945E-02      0.1216293234E-01
          0                 4           1             4    7     1      -0.4024297474E-05       4    7    1        -0.2299706521E-03      0.4974375440E-03

    ------------------------------------------------
       NWT REQUIRED            4 OUTER ITERATIONS 
       AND A TOTAL OF          6 INNER ITERATIONS.
    ------------------------------------------------

 NO OUTPUT CONTROL FOR STRESS PERIOD   25   TIME STEP   23
 
 SOLVING FOR HEAD 
                                                   Max.-Head-Change                         Max.-Flux-Residual
  Residual-Control   Outer-Iter.   Inner-Iter.     Column Row Layer    Maximum-Head-Change  Column Row Layer    Maximum-Flux-Residual          L2-NORM 
          0                 1           2             4    7     1       0.1508986000E-01       4    7    1         0.7935758378E+00      0.1768936752E+01
          0                 2           2             4    7     1      -0.1467364378E-02       4    7    1        -0.7935792517E-01      0.1727804416E+00
          0                 3           1             4    7     1       0.9993689340E-04       4    7    1         0.5555053869E-02      0.1204638215E-01

    ------------------------------------------------
       NWT REQUIRED            3 OUTER ITERATIONS 
       AND A TOTAL OF          5 INNER ITERATIONS.
    ------------------------------------------------

 NO OUTPUT CONTROL FOR STRESS PERIOD   25   TIME STEP   24
 
 SOLVING FOR HEAD 
                                                   Max.-Head-Change                         Max.-Flux-Residual
  Residual-Control   Outer-Iter.   Inner-Iter.     Column Row Layer    Maximum-Head-Change  Column Row Layer    Maximum-Flux-Residual          L2-NORM 
          0                 1           2             4    7     1       0.1491026094E-01       4    7    1         0.7840778469E+00      0.1752200835E+01
          0                 2           2             4    7     1      -0.1449898078E-02       4    7    1        -0.7840811735E-01      0.1711360821E+00
          0                 3           1             4    7     1       0.9874738111E-04       4    7    1         0.5488567369E-02      0.1193165082E-01

    ------------------------------------------------
       NWT REQUIRED            3 OUTER ITERATIONS 
       AND A TOTAL OF          5 INNER ITERATIONS.
    ------------------------------------------------

 NO OUTPUT CONTROL FOR STRESS PERIOD   25   TIME STEP   25
 
 SOLVING FOR HEAD 
                                                   Max.-Head-Change                         Max.-Flux-Residual
  Residual-Control   Outer-Iter.   Inner-Iter.     Column Row Layer    Maximum-Head-Change  Column Row Layer    Maximum-Flux-Residual          L2-NORM 
          0                 1           2             4    7     1       0.1473374979E-01       4    7    1         0.7747435691E+00      0.1735726577E+01
          0                 2           2             4    7     1      -0.1432732127E-02       4    7    1        -0.7747468111E-01      0.1695182426E+00
          0                 3           1             4    7     1       0.9757832188E-04       4    7    1         0.5423226885E-02      0.1181873264E-01

    ------------------------------------------------
       NWT REQUIRED            3 OUTER ITERATIONS 
       AND A TOTAL OF          5 INNER ITERATIONS.
    ------------------------------------------------

 NO OUTPUT CONTROL FOR STRESS PERIOD   25   TIME STEP   26
 
 SOLVING FOR HEAD 
                                                   Max.-Head-Change                         Max.-Flux-Residual
  Residual-Control   Outer-Iter.   Inner-Iter.     Column Row Layer    Maximum-Head-Change  Column Row Layer    Maximum-Flux-Residual          L2-NORM 
          0                 1           2             4    7     1       0.1456038167E-01       4    7    1         0.7655767597E+00      0.1719492889E+01
          0                 2           2             4    7     1      -0.1415871884E-02       4    7    1        -0.7655799196E-01      0.1679243255E+00
          0                 3           1             4    7     1       0.9643008091E-04       4    7    1         0.5359058684E-02      0.1170753953E-01

    ------------------------------------------------
       NWT REQUIRED            3 OUTER ITERATIONS 
       AND A TOTAL OF          5 INNER ITERATIONS.
    ------------------------------------------------

 NO OUTPUT CONTROL FOR STRESS PERIOD   25   TIME STEP   27
 
 SOLVING FOR HEAD 
                                                   Max.-Head-Change                         Max.-Flux-Residual
  Residual-Control   Outer-Iter.   Inner-Iter.     Column Row Layer    Maximum-Head-Change  Column Row Layer    Maximum-Flux-Residual          L2-NORM 
          0                 1           2             4    7     1       0.1438995155E-01       4    7    1         0.7565655481E+00      0.1703512185E+01
          0                 2           2             4    7     1      -0.1399297404E-02       4    7    1        -0.7565686281E-01      0.1663559912E+00
          0                 3           1             4    7     1       0.9530130076E-04       4    7    1         0.5295979703E-02      0.1159809259E-01

    ------------------------------------------------
       NWT REQUIRED            3 OUTER ITERATIONS 
       AND A TOTAL OF          5 INNER ITERATIONS.
    ------------------------------------------------

 NO OUTPUT CONTROL FOR STRESS PERIOD   25   TIME STEP   28
 
 SOLVING FOR HEAD 
                                                   Max.-Head-Change                         Max.-Flux-Residual
  Residual-Control   Outer-Iter.   Inner-Iter.     Column Row Layer    Maximum-Head-Change  Column Row Layer    Maximum-Flux-Residual          L2-NORM 
          0                 1           2             4    7     1       0.1422239057E-01       4    7    1         0.7477066685E+00      0.1687770300E+01
          0                 2           2             4    7     1      -0.1383001989E-02       4    7    1        -0.7477096711E-01      0.1648116146E+00
          0                 3           1             4    7     1       0.9419152452E-04       4    7    1         0.5233967058E-02      0.1149032817E-01

    ------------------------------------------------
       NWT REQUIRED            3 OUTER ITERATIONS 
       AND A TOTAL OF          5 INNER ITERATIONS.
    ------------------------------------------------

 NO OUTPUT CONTROL FOR STRESS PERIOD   25   TIME STEP   29
 
 SOLVING FOR HEAD 
                                                   Max.-Head-Change                         Max.-Flux-Residual
  Residual-Control   Outer-Iter.   Inner-Iter.     Column Row Layer    Maximum-Head-Change  Column Row Layer    Maximum-Flux-Residual          L2-NORM 
          0                 1           2             4    7     1       0.1405775928E-01       4    7    1         0.7390039147E+00      0.1672385176E+01
          0                 2           2             4    7     1      -0.1366991537E-02       4    7    1        -0.7390068423E-01      0.1633032372E+00
          0                 3           1             4    7     1       0.9310115360E-04       4    7    1         0.5173047286E-02      0.1138508552E-01

    ------------------------------------------------
       NWT REQUIRED            3 OUTER ITERATIONS 
       AND A TOTAL OF          5 INNER ITERATIONS.
    ------------------------------------------------

 NO OUTPUT CONTROL FOR STRESS PERIOD   25   TIME STEP   30



 STREAM LISTING     PERIOD     25   STEP       30

 LAYER ROW COL. STREAM  RCH.  FLOW INTO     FLOW TO   FLOW OUT OF   OVRLND.     DIRECT     STREAM       STREAM     STREAM     STREAM   STREAMBED  STREAMBED
                SEG.NO.  NO.  STRM. RCH.    AQUIFER    STRM. RCH.    RUNOFF     PRECIP       ET          HEAD       DEPTH      WIDTH   CONDCTNC.   GRADIENT

   1    1    1     1     1    1.4942E+01  1.8668E-01   1.4756E+01  0.000E+00  0.000E+00  0.000E+00  1.09406E+03  1.009E+00  1.035E+01  4.656E-02  1.336E+00
   1    2    2     1     2    1.4756E+01  2.8774E-01   1.4468E+01  0.000E+00  0.000E+00  0.000E+00  1.08906E+03  1.004E+00  1.027E+01  7.186E-02  1.335E+00
   1    3    3     1     3    1.4468E+01  2.4407E-01   1.4224E+01  0.000E+00  0.000E+00  0.000E+00  1.08342E+03  9.991E-01  1.017E+01  6.103E-02  1.333E+00
   1    3    4     1     4    1.4224E+01  2.2366E-01   1.4000E+01  0.000E+00  0.000E+00  0.000E+00  1.07840E+03  9.944E-01  1.009E+01  5.599E-02  1.331E+00
   1    4    5     2     1    1.2000E+01  2.9419E-01   1.1706E+01  0.000E+00  0.000E+00  0.000E+00  1.07271E+03  7.717E-01  1.200E+01  7.800E-02  1.257E+00
   1    5    6     2     2    1.1706E+01  2.2569E-01   1.1480E+01  0.000E+00  0.000E+00  0.000E+00  1.06727E+03  7.615E-01  1.200E+01  6.000E-02  1.254E+00
   1    6    6     2     3    1.1480E+01  2.2515E-01   1.1255E+01  0.000E+00  0.000E+00  0.000E+00  1.06255E+03  7.526E-01  1.200E+01  6.000E-02  1.251E+00
   1    7    6     2     4    1.1255E+01  2.2462E-01   1.1031E+01  0.000E+00  0.000E+00  0.000E+00  1.05782E+03  7.436E-01  1.200E+01  6.000E-02  1.248E+00
   1    8    6     2     5    1.1031E+01  2.2408E-01   1.0807E+01  0.000E+00  0.000E+00  0.000E+00  1.05309E+03  7.346E-01  1.200E+01  6.000E-02  1.245E+00
   1    3    5     3     1    2.0000E+00  2.8252E-01   1.7175E+00  0.000E+00  0.000E+00  0.000E+00  1.07555E+03  1.909E+00  9.636E+00  7.227E-02  1.955E+00
   1    3    6     3     2    1.7175E+00  2.4905E-01   1.4684E+00  0.000E+00  0.000E+00  0.000E+00  1.07264E+03  1.727E+00  8.909E+00  6.682E-02  1.864E+00
   1    3    7     3     3    1.4684E+00  1.9718E-01   1.2712E+00  0.000E+00  0.000E+00  0.000E+00  1.06987E+03  1.555E+00  8.218E+00  5.547E-02  1.777E+00
   1    4    8     3     4    1.2712E+00  2.2567E-01   1.0456E+00  0.000E+00  0.000E+00  0.000E+00  1.06682E+03  1.364E+00  7.455E+00  6.709E-02  1.682E+00
   1    5    8     3     5    1.0456E+00  1.5790E-01   8.8768E-01  0.000E+00  0.000E+00  0.000E+00  1.06362E+03  1.164E+00  6.655E+00  4.991E-02  1.582E+00
   1    6    8     3     6    8.8768E-01  5.5980E-02   8.3170E-01  0.000E+00  0.000E+00  0.000E+00  1.06158E+03  1.036E+00  6.145E+00  1.844E-02  1.518E+00
   1    5   10     4     1    1.0000E+01  9.0919E-02   9.9091E+00  0.000E+00  0.000E+00  0.000E+00  1.07836E+03  6.368E-01  1.000E+01  2.500E-02  1.212E+00
   1    5    9     4     2    9.9091E+00  1.8158E-01   9.7275E+00  0.000E+00  0.000E+00  0.000E+00  1.07154E+03  6.315E-01  1.000E+01  5.000E-02  1.211E+00
   1    6    8     4     3    9.7275E+00  1.2689E-01   9.6006E+00  0.000E+00  0.000E+00  0.000E+00  1.06381E+03  6.256E-01  1.000E+01  3.500E-02  1.209E+00
   1    6    8     5     1    1.0432E+01  2.2686E-01   1.0205E+01  0.000E+00  0.000E+00  0.000E+00  1.05868E+03  6.790E-01  1.542E+01  6.166E-02  1.226E+00
   1    7    7     5     2    1.0205E+01  2.7894E-01   9.9265E+00  0.000E+00  0.000E+00  0.000E+00  1.05417E+03  6.732E-01  1.519E+01  7.594E-02  1.224E+00
   1    8    7     5     3    9.9265E+00  1.9221E-01   9.7343E+00  0.000E+00  0.000E+00  0.000E+00  1.04992E+03  6.676E-01  1.497E+01  5.241E-02  1.223E+00
   1    8    6     5     4    9.7343E+00  1.3577E-01   9.5985E+00  0.000E+00  0.000E+00  0.000E+00  1.04691E+03  6.637E-01  1.482E+01  3.706E-02  1.221E+00
   1    9    6     6     1    2.0405E+01  2.4462E-01   2.0161E+01  0.000E+00  0.000E+00  0.000E+00  1.04380E+03  1.077E+00  1.200E+01  6.000E-02  1.359E+00
   1   10    7     6     2    2.0161E+01  2.4416E-01   1.9916E+01  0.000E+00  0.000E+00  0.000E+00  1.03925E+03  1.069E+00  1.200E+01  6.000E-02  1.356E+00
   1   11    7     6     3    1.9916E+01  2.4369E-01   1.9673E+01  0.000E+00  0.000E+00  0.000E+00  1.03470E+03  1.061E+00  1.200E+01  6.000E-02  1.354E+00
   1   12    7     6     4    1.9673E+01  2.4322E-01   1.9429E+01  0.000E+00  0.000E+00  0.000E+00  1.03014E+03  1.054E+00  1.200E+01  6.000E-02  1.351E+00
   1   13    7     6     5    1.9429E+01 -1.5686E-02   1.9445E+01  0.000E+00  0.000E+00  0.000E+00  1.02696E+03  1.050E+00  1.200E+01  2.400E-01 -2.179E-02
   1   14    9     7     1    1.5000E+02  1.3398E+00   1.4866E+02  0.000E+00  0.000E+00  0.000E+00  1.03987E+03  2.288E+00  5.529E+01  5.593E-01  7.985E-01
   1   13    8     7     2    1.4866E+02  1.8468E+00   1.4681E+02  0.000E+00  0.000E+00  0.000E+00  1.03478E+03  2.279E+00  5.526E+01  6.148E-01  1.001E+00
   1   13    7     7     3    1.4681E+02  1.4884E+00   1.4532E+02  0.000E+00  0.000E+00  0.000E+00  1.02969E+03  2.270E+00  5.522E+01  5.584E-01  8.884E-01
   1   13    6     8     1    1.6477E+02  9.1370E-01   1.6386E+02  0.000E+00  0.000E+00  0.000E+00  1.02479E+03  2.915E+00  4.226E+01  4.307E-01  7.072E-01
   1   13    5     8     2    1.6386E+02  1.7469E-01   1.6368E+02  0.000E+00  0.000E+00  0.000E+00  1.01854E+03  2.911E+00  4.221E+01  4.302E-01  1.354E-01
   1   13    4     8     3    1.6368E+02 -2.4291E+00   1.6611E+02  0.000E+00  0.000E+00  0.000E+00  1.01229E+03  2.919E+00  4.232E+01  4.313E+00 -1.878E-01
   1   13    3     8     4    1.6611E+02 -3.6464E+00   1.6976E+02  0.000E+00  0.000E+00  0.000E+00  1.00606E+03  2.939E+00  4.261E+01  4.342E+00 -2.799E-01
   1   13    2     8     5    1.6976E+02 -2.5785E+00   1.7234E+02  0.000E+00  0.000E+00  0.000E+00  9.99834E+02  2.959E+00  4.291E+01  4.372E+00 -1.966E-01
   1   13    1     8     6    1.7234E+02 -1.9813E+00   1.7432E+02  0.000E+00  0.000E+00  0.000E+00  9.94849E+02  2.974E+00  4.312E+01  2.636E+00 -2.505E-01
   1    8    6     9     1    0.0000E+00  0.0000E+00   0.0000E+00  0.000E+00  0.000E+00  0.000E+00  1.07875E+03  0.000E+00  4.000E+00  0.000E+00  1.000E+00
   1    8    5     9     2    0.0000E+00  0.0000E+00   0.0000E+00  0.000E+00  0.000E+00  0.000E+00  1.07825E+03  0.000E+00  4.000E+00  0.000E+00  1.000E+00





UNSATURATED ZONE PACKAGE VOLUMETRIC BUDGET FOR  TIME STEP    30 STRESS PERIOD   25
  ------------------------------------------------------------------------------



     CUMULATIVE VOLUMES      L**3       RATES FOR THIS TIME STEP      L**3/T
     ------------------                 ------------------------

           IN:                                      IN:
           ---                                      ---
        INFILTRATION =  1036692940.2695          INFILTRATION =           0.8475

          OUT:                                     OUT:
          ----                                     ----
              UZF ET =   861339665.1606                UZF ET =           0.7500
        UZF RECHARGE =     2408833.2068          UZF RECHARGE =           0.0578

            IN - OUT =   172944441.9020              IN - OUT =       3.9666E-02

          STORAGE:                                 STORAGE:
          --------                                 --------
      STORAGE CHANGE =   172944908.3606        STORAGE CHANGE =       3.9666E-02

 PERCENT DISCREPANCY IS DIFFERENCE BETWEEN IN-OUT MINUS CHANGE IN STORAGE
 DIVIDED BY THE AVERAGE OF IN AND OUT TIMES 100

 PERCENT DISCREPANCY =          -0.00     PERCENT DISCREPANCY =           0.00






1
  VOLUMETRIC BUDGET FOR AGRICULTURAL FIELDS AT  END OF TIME STEP   30, STRESS PERIOD  25
  ------------------------------------------------------------------------------

     CUMULATIVE VOLUMES      L**3       RATES FOR THIS TIME STEP      L**3/T
     ------------------                 ------------------------

           IN:                                      IN:
           ---                                      ---
               AG WELLS  =   391007552.0000                 AG WELLS  =           0.0000
      DIVERSION SEGMENTS =   592111808.0000        DIVERSION SEGMENTS =           0.0000
           GW IRRIGATION =           0.0000             GW IRRIGATION =           0.0000
           SW IRRIGATION =           0.0000             SW IRRIGATION =           0.0000
        SYSTEM LOSSES GW =           0.0000          SYSTEM LOSSES GW =           0.0000
        SYSTEM LOSSES SW =           0.0000          SYSTEM LOSSES SW =           0.0000

                TOTAL IN =   983119360.0000                  TOTAL IN =           0.0000

          OUT:                                     OUT:
          ----                                     ----
               AG WELLS  =           0.0000                 AG WELLS  =           0.0000
      DIVERSION SEGMENTS =           0.0000        DIVERSION SEGMENTS =           0.0000
           GW IRRIGATION =   391007552.0000             GW IRRIGATION =           0.0000
           SW IRRIGATION =   592123584.0000             SW IRRIGATION =           0.0000
        SYSTEM LOSSES GW =           0.0000          SYSTEM LOSSES GW =           0.0000
        SYSTEM LOSSES SW =           0.0000          SYSTEM LOSSES SW =           0.0000

               TOTAL OUT =   983131136.0000                 TOTAL OUT =           0.0000

                IN - OUT =      -11776.0000                  IN - OUT =           0.0000

     PERCENT DISCREPANCY =          -0.00         PERCENT DISCREPANCY =           0.00



1
  VOLUMETRIC BUDGET FOR ENTIRE MODEL AT END OF TIME STEP   30, STRESS PERIOD  25
  ------------------------------------------------------------------------------

     CUMULATIVE VOLUMES      L**3       RATES FOR THIS TIME STEP      L**3/T
     ------------------                 ------------------------

           IN:                                      IN:
           ---                                      ---
             STORAGE     =   626243968.0000               STORAGE     =           4.7802
       CONSTANT HEAD     =           0.0000         CONSTANT HEAD     =           0.0000
     HEAD DEP BOUNDS     =    18064162.0000       HEAD DEP BOUNDS     =           0.2860
      STREAM LEAKAGE     =   751671744.0000        STREAM LEAKAGE     =          11.2765
        UZF RECHARGE     =     2408833.2500          UZF RECHARGE     =       5.7834E-02
               GW ET     =           0.0000                 GW ET     =           0.0000
     SURFACE LEAKAGE     =           0.0000       SURFACE LEAKAGE     =           0.0000
           AG WELLS      =           0.0000             AG WELLS      =           0.0000

                TOTAL IN =  1398388736.0000                  TOTAL IN =          16.4006

          OUT:                                     OUT:
          ----                                     ----
             STORAGE     =   304207488.0000               STORAGE     =           5.4608
       CONSTANT HEAD     =           0.0000         CONSTANT HEAD     =           0.0000
     HEAD DEP BOUNDS     =    18368826.0000       HEAD DEP BOUNDS     =           0.2888
      STREAM LEAKAGE     =   682671168.0000        STREAM LEAKAGE     =          10.6510
        UZF RECHARGE     =           0.0000          UZF RECHARGE     =           0.0000
               GW ET     =     2141481.7500                 GW ET     =           0.0000
     SURFACE LEAKAGE     =           0.0000       SURFACE LEAKAGE     =           0.0000
           AG WELLS      =   391007552.0000             AG WELLS      =           0.0000

               TOTAL OUT =  1398396544.0000                 TOTAL OUT =          16.4006

                IN - OUT =       -7808.0000                  IN - OUT =      -4.0054E-05

     PERCENT DISCREPANCY =          -0.00         PERCENT DISCREPANCY =          -0.00






         TIME SUMMARY AT END OF TIME STEP   30 IN STRESS PERIOD   25
                    SECONDS     MINUTES      HOURS       DAYS        YEARS
                    -----------------------------------------------------------
   TIME STEP LENGTH  87667.      1461.1      24.352      1.0147     2.77799E-03
 STRESS PERIOD TIME 2.63000E+06  43833.      730.56      30.440     8.33397E-02
         TOTAL TIME 6.32067E+07 1.05345E+06  17557.      731.56      2.0029    
1
1
                            STRESS PERIOD NO.   26, LENGTH =   2630000.    
                            -----------------------------------------------

                              NUMBER OF TIME STEPS =    30

                               MULTIPLIER FOR DELT =     1.000

                            INITIAL TIME STEP SIZE =   87666.66    

 REUSING NON-PARAMETER GHB CELLS FROM LAST STRESS PERIOD

      2 GHB CELLS

 REUSING STREAM SEGMENT DATA FROM LAST STRESS PERIOD



            AREAL INFILTRATION RATE
 READING ON UNIT   19 WITH FORMAT: (FREE)              

            1           2           3           4           5           6           7           8           9          10
 ........................................................................................................................
   1   1.0000E-10  2.0000E-10   0.000       0.000       0.000       0.000       0.000       0.000       0.000       0.000    
   2   2.0000E-10  1.0000E-10  2.0000E-10   0.000       0.000      8.0000E-10  8.0000E-10  5.0000E-10   0.000       0.000    
   3    0.000      5.0000E-10  1.0000E-10  1.0000E-10  8.0000E-10  8.0000E-10  5.0000E-10  5.0000E-10   0.000       0.000    
   4   8.0000E-10  5.0000E-10  1.0000E-10  1.0000E-10  1.0000E-10  1.0000E-10  1.0000E-10  1.0000E-10  2.0000E-10   0.000    
   5   8.0000E-10  5.0000E-10  1.0000E-10  1.0000E-10  1.0000E-10  1.0000E-10  1.0000E-10  1.0000E-10  1.0000E-10  1.0000E-10
   6   8.0000E-10  5.0000E-10  5.0000E-10  2.0000E-10  2.0000E-10  1.0000E-10  1.0000E-10  1.0000E-10  1.0000E-10  5.0000E-10
   7   8.0000E-10  5.0000E-10  5.0000E-10  2.0000E-10  2.0000E-10  1.0000E-10  1.0000E-10  2.0000E-10  2.0000E-10   0.000    
   8    0.000      5.0000E-10  5.0000E-10  2.0000E-10  2.0000E-10  1.0000E-10  1.0000E-10  2.0000E-10  5.0000E-10   0.000    
   9    0.000      5.0000E-10  5.0000E-10  2.0000E-10  2.0000E-10  1.0000E-10  1.0000E-10  2.0000E-10  5.0000E-10   0.000    
  10    0.000      5.0000E-10  5.0000E-10  2.0000E-10  2.0000E-10  1.0000E-10  1.0000E-10  2.0000E-10  5.0000E-10  8.0000E-10
  11    0.000      1.0000E-10  1.0000E-10  1.0000E-10  1.0000E-10  1.0000E-10  1.0000E-10  2.0000E-10  5.0000E-10   0.000    
  12   1.0000E-10  1.0000E-10  1.0000E-10  1.0000E-10  1.0000E-10  1.0000E-10  1.0000E-10  1.0000E-10  2.0000E-10   0.000    
  13   1.0000E-10  1.0000E-10  2.0000E-10  2.0000E-10  2.0000E-10  2.0000E-10  2.0000E-10  1.0000E-10  1.0000E-10   0.000    
  14    0.000      2.0000E-10  5.0000E-10  5.0000E-10  5.0000E-10  5.0000E-10  5.0000E-10  2.0000E-10  1.0000E-10   0.000    
  15    0.000       0.000      8.0000E-10  8.0000E-10  8.0000E-10  8.0000E-10   0.000       0.000       0.000       0.000    

                  ET RATE =  5.000000E-10

 USING ET EXTINCTION DEPTH FROM PREVIOUS STRESS PERIOD. CURRENT PERIOD IS:      26

 USING EXTINCTION WATER CONTENT FROM PREVIOUS STRESS PERIOD. CURRENT PERIOD IS:      26

 USING AIR ENTRY PRESSURE FROM PREVIOUS STRESS PERIOD. CURRENT PERIOD IS:      26

 USING ROOT PRESSURE HEAD FROM PREVIOUS STRESS PERIOD. CURRENT PERIOD IS:      26

 USING ROOT ACTIVITY FROM PREVIOUS STRESS PERIOD. CURRENT PERIOD IS:      26

 PROCESSING AG STRESS PERIOD DATA

 READING AG STRESS PERIOD DATA

 READING IRRIGATION SEGMENT

 READING IRRIGATION WELL

 READING SUPPLEMENTAL WELL

 END PROCESSING AG STRESS PERIOD DATA OPTIONS
 
 SOLVING FOR HEAD 
                                                   Max.-Head-Change                         Max.-Flux-Residual
  Residual-Control   Outer-Iter.   Inner-Iter.     Column Row Layer    Maximum-Head-Change  Column Row Layer    Maximum-Flux-Residual          L2-NORM 
          0                 1           2             4    7     1       0.1389584868E-01       4    7    1         0.7304456969E+00      0.1659010988E+01
          0                 2           2             4    7     1      -0.1351245724E-02       4    7    1        -0.7304485516E-01      0.1619967613E+00
          0                 3           1             4    7     1       0.9202880417E-04       4    7    1         0.5113139304E-02      0.1129375321E-01

    ------------------------------------------------
       NWT REQUIRED            3 OUTER ITERATIONS 
       AND A TOTAL OF          5 INNER ITERATIONS.
    ------------------------------------------------

 NO OUTPUT CONTROL FOR STRESS PERIOD   26   TIME STEP    1
 
 SOLVING FOR HEAD 
                                                   Max.-Head-Change                         Max.-Flux-Residual
  Residual-Control   Outer-Iter.   Inner-Iter.     Column Row Layer    Maximum-Head-Change  Column Row Layer    Maximum-Flux-Residual          L2-NORM 
          0                 1           2             4    7     1       0.1373675504E-01       4    7    1         0.7220359071E+00      0.1639836910E+01
          0                 2           2             4    7     1      -0.1335798408E-02       4    7    1        -0.7220386907E-01      0.1601413485E+00
          0                 3           1             4    7     1       0.9097677952E-04       4    7    1         0.5054270334E-02      0.1116432961E-01

    ------------------------------------------------
       NWT REQUIRED            3 OUTER ITERATIONS 
       AND A TOTAL OF          5 INNER ITERATIONS.
    ------------------------------------------------

 NO OUTPUT CONTROL FOR STRESS PERIOD   26   TIME STEP    2
 
 SOLVING FOR HEAD 
                                                   Max.-Head-Change                         Max.-Flux-Residual
  Residual-Control   Outer-Iter.   Inner-Iter.     Column Row Layer    Maximum-Head-Change  Column Row Layer    Maximum-Flux-Residual          L2-NORM 
          0                 1           2             4    7     1       0.1358030716E-01       4    7    1         0.7137708714E+00      0.1624796512E+01
          0                 2           2             4    7     1      -0.1320559378E-02       4    7    1        -0.7137735876E-01      0.1586280947E+00
          0                 3           1             4    7     1       0.8993894616E-04       4    7    1         0.4996414657E-02      0.1105870628E-01

    ------------------------------------------------
       NWT REQUIRED            3 OUTER ITERATIONS 
       AND A TOTAL OF          5 INNER ITERATIONS.
    ------------------------------------------------

 NO OUTPUT CONTROL FOR STRESS PERIOD   26   TIME STEP    3
 
 SOLVING FOR HEAD 
                                                   Max.-Head-Change                         Max.-Flux-Residual
  Residual-Control   Outer-Iter.   Inner-Iter.     Column Row Layer    Maximum-Head-Change  Column Row Layer    Maximum-Flux-Residual          L2-NORM 
          0                 1           2             4    7     1       0.1342638117E-01       4    7    1         0.7056382563E+00      0.1610028676E+01
          0                 2           2             4    7     1      -0.1305590105E-02       4    7    1        -0.7056409065E-01      0.1571804909E+00
          0                 3           1             4    7     1       0.8891948090E-04       4    7    1         0.4939485913E-02      0.1095777178E-01

    ------------------------------------------------
       NWT REQUIRED            3 OUTER ITERATIONS 
       AND A TOTAL OF          5 INNER ITERATIONS.
    ------------------------------------------------

 NO OUTPUT CONTROL FOR STRESS PERIOD   26   TIME STEP    4
 
 SOLVING FOR HEAD 
                                                   Max.-Head-Change                         Max.-Flux-Residual
  Residual-Control   Outer-Iter.   Inner-Iter.     Column Row Layer    Maximum-Head-Change  Column Row Layer    Maximum-Flux-Residual          L2-NORM 
          0                 1           2             4    7     1       0.1327503328E-01       4    7    1         0.6976424636E+00      0.1595495621E+01
          0                 2           2             4    7     1      -0.1290871578E-02       4    7    1        -0.6976450495E-01      0.1557561714E+00
          0                 3           1             4    7     1       0.8791709184E-04       4    7    1         0.4883514962E-02      0.1085840704E-01

    ------------------------------------------------
       NWT REQUIRED            3 OUTER ITERATIONS 
       AND A TOTAL OF          5 INNER ITERATIONS.
    ------------------------------------------------

 NO OUTPUT CONTROL FOR STRESS PERIOD   26   TIME STEP    5
 
 SOLVING FOR HEAD 
                                                   Max.-Head-Change                         Max.-Flux-Residual
  Residual-Control   Outer-Iter.   Inner-Iter.     Column Row Layer    Maximum-Head-Change  Column Row Layer    Maximum-Flux-Residual          L2-NORM 
          0                 1           2             4    7     1       0.1312621022E-01       4    7    1         0.6897803427E+00      0.1581191849E+01
          0                 2           2             4    7     1      -0.1276398632E-02       4    7    1        -0.6897828662E-01      0.1543550238E+00
          0                 3           1             4    7     1       0.8693142612E-04       4    7    1         0.4828479703E-02      0.1076071124E-01

    ------------------------------------------------
       NWT REQUIRED            3 OUTER ITERATIONS 
       AND A TOTAL OF          5 INNER ITERATIONS.
    ------------------------------------------------

 NO OUTPUT CONTROL FOR STRESS PERIOD   26   TIME STEP    6
 
 SOLVING FOR HEAD 
                                                   Max.-Head-Change                         Max.-Flux-Residual
  Residual-Control   Outer-Iter.   Inner-Iter.     Column Row Layer    Maximum-Head-Change  Column Row Layer    Maximum-Flux-Residual          L2-NORM 
          0                 1           2             4    7     1       0.1297985611E-01       4    7    1         0.6820491316E+00      0.1567106171E+01
          0                 2           2             4    7     1      -0.1262165822E-02       4    7    1        -0.6820515943E-01      0.1529757019E+00
          0                 3           1             4    7     1       0.8596211393E-04       4    7    1         0.4774360849E-02      0.1066451237E-01

    ------------------------------------------------
       NWT REQUIRED            3 OUTER ITERATIONS 
       AND A TOTAL OF          5 INNER ITERATIONS.
    ------------------------------------------------

 NO OUTPUT CONTROL FOR STRESS PERIOD   26   TIME STEP    7
 
 SOLVING FOR HEAD 
                                                   Max.-Head-Change                         Max.-Flux-Residual
  Residual-Control   Outer-Iter.   Inner-Iter.     Column Row Layer    Maximum-Head-Change  Column Row Layer    Maximum-Flux-Residual          L2-NORM 
          0                 1           2             4    7     1       0.1283577931E-01       4    7    1         0.6744385669E+00      0.1553231618E+01
          0                 2           2             4    7     1      -0.1248154506E-02       4    7    1        -0.6744409705E-01      0.1516174485E+00
          0                 3           1             4    7     1       0.8500788564E-04       4    7    1         0.4721086520E-02      0.1056978115E-01

    ------------------------------------------------
       NWT REQUIRED            3 OUTER ITERATIONS 
       AND A TOTAL OF          5 INNER ITERATIONS.
    ------------------------------------------------

 NO OUTPUT CONTROL FOR STRESS PERIOD   26   TIME STEP    8
 
 SOLVING FOR HEAD 
                                                   Max.-Head-Change                         Max.-Flux-Residual
  Residual-Control   Outer-Iter.   Inner-Iter.     Column Row Layer    Maximum-Head-Change  Column Row Layer    Maximum-Flux-Residual          L2-NORM 
          0                 1           2             4    7     1       0.1269406784E-01       4    7    1         0.6669534445E+00      0.1539568860E+01
          0                 2           2             4    7     1      -0.1234373235E-02       4    7    1        -0.6669557905E-01      0.1502802016E+00
          0                 3           1             4    7     1       0.8406932323E-04       4    7    1         0.4668690278E-02      0.1047653392E-01

    ------------------------------------------------
       NWT REQUIRED            3 OUTER ITERATIONS 
       AND A TOTAL OF          5 INNER ITERATIONS.
    ------------------------------------------------

 NO OUTPUT CONTROL FOR STRESS PERIOD   26   TIME STEP    9
 
 SOLVING FOR HEAD 
                                                   Max.-Head-Change                         Max.-Flux-Residual
  Residual-Control   Outer-Iter.   Inner-Iter.     Column Row Layer    Maximum-Head-Change  Column Row Layer    Maximum-Flux-Residual          L2-NORM 
          0                 1           2             4    7     1       0.1255480462E-01       4    7    1         0.6595983291E+00      0.1526103163E+01
          0                 2           2             4    7     1      -0.1220830095E-02       4    7    1        -0.6596006193E-01      0.1489627510E+00
          0                 3           1             4    7     1       0.8314697767E-04       4    7    1         0.4617204104E-02      0.1038465310E-01

    ------------------------------------------------
       NWT REQUIRED            3 OUTER ITERATIONS 
       AND A TOTAL OF          5 INNER ITERATIONS.
    ------------------------------------------------

 NO OUTPUT CONTROL FOR STRESS PERIOD   26   TIME STEP   10
 
 SOLVING FOR HEAD 
                                                   Max.-Head-Change                         Max.-Flux-Residual
  Residual-Control   Outer-Iter.   Inner-Iter.     Column Row Layer    Maximum-Head-Change  Column Row Layer    Maximum-Flux-Residual          L2-NORM 
          0                 1           2             4    7     1       0.1241766291E-01       4    7    1         0.6523554201E+00      0.1512838331E+01
          0                 2           2             4    7     1      -0.1207493291E-02       4    7    1        -0.6523576559E-01      0.1476653443E+00
          0                 3           1             4    7     1       0.8223868376E-04       4    7    1         0.4566503405E-02      0.1029416925E-01

    ------------------------------------------------
       NWT REQUIRED            3 OUTER ITERATIONS 
       AND A TOTAL OF          5 INNER ITERATIONS.
    ------------------------------------------------

 NO OUTPUT CONTROL FOR STRESS PERIOD   26   TIME STEP   11
 
 SOLVING FOR HEAD 
                                                   Max.-Head-Change                         Max.-Flux-Residual
  Residual-Control   Outer-Iter.   Inner-Iter.     Column Row Layer    Maximum-Head-Change  Column Row Layer    Maximum-Flux-Residual          L2-NORM 
          0                 1           2             4    7     1       0.1228273341E-01       4    7    1         0.6452298757E+00      0.1499765706E+01
          0                 2           2             4    7     1      -0.1194371647E-02       4    7    1        -0.6452320585E-01      0.1463870585E+00
          0                 3           1             4    7     1       0.8134504240E-04       4    7    1         0.4516624245E-02      0.1020505509E-01

    ------------------------------------------------
       NWT REQUIRED            3 OUTER ITERATIONS 
       AND A TOTAL OF          5 INNER ITERATIONS.
    ------------------------------------------------

 NO OUTPUT CONTROL FOR STRESS PERIOD   26   TIME STEP   12
 
 SOLVING FOR HEAD 
                                                   Max.-Head-Change                         Max.-Flux-Residual
  Residual-Control   Outer-Iter.   Inner-Iter.     Column Row Layer    Maximum-Head-Change  Column Row Layer    Maximum-Flux-Residual          L2-NORM 
          0                 1           2             4    7     1       0.1214996762E-01       4    7    1         0.6382190327E+00      0.1486876869E+01
          0                 2           2             4    7     1      -0.1181460435E-02       4    7    1        -0.6382211640E-01      0.1451268629E+00
          0                 3           1             4    7     1       0.8046573197E-04       4    7    1         0.4467548015E-02      0.1011716089E-01

    ------------------------------------------------
       NWT REQUIRED            3 OUTER ITERATIONS 
       AND A TOTAL OF          5 INNER ITERATIONS.
    ------------------------------------------------

 NO OUTPUT CONTROL FOR STRESS PERIOD   26   TIME STEP   13
 
 SOLVING FOR HEAD 
                                                   Max.-Head-Change                         Max.-Flux-Residual
  Residual-Control   Outer-Iter.   Inner-Iter.     Column Row Layer    Maximum-Head-Change  Column Row Layer    Maximum-Flux-Residual          L2-NORM 
          0                 1           2             4    7     1       0.1201931996E-01       4    7    1         0.6313203769E+00      0.1474178314E+01
          0                 2           2             4    7     1      -0.1168755239E-02       4    7    1        -0.6313224580E-01      0.1438858045E+00
          0                 3           1             4    7     1       0.7960045094E-04       4    7    1         0.4419257102E-02      0.1003062248E-01

    ------------------------------------------------
       NWT REQUIRED            3 OUTER ITERATIONS 
       AND A TOTAL OF          5 INNER ITERATIONS.
    ------------------------------------------------

 NO OUTPUT CONTROL FOR STRESS PERIOD   26   TIME STEP   14
 
 SOLVING FOR HEAD 
                                                   Max.-Head-Change                         Max.-Flux-Residual
  Residual-Control   Outer-Iter.   Inner-Iter.     Column Row Layer    Maximum-Head-Change  Column Row Layer    Maximum-Flux-Residual          L2-NORM 
          0                 1           2             4    7     1       0.1189074228E-01       4    7    1         0.6245315437E+00      0.1461662928E+01
          0                 2           2             4    7     1      -0.1156251365E-02       4    7    1        -0.6245335762E-01      0.1426629336E+00
          0                 3           1             4    7     1       0.7874888039E-04       4    7    1         0.4371734956E-02      0.9945351396E-02

    ------------------------------------------------
       NWT REQUIRED            3 OUTER ITERATIONS 
       AND A TOTAL OF          5 INNER ITERATIONS.
    ------------------------------------------------

 NO OUTPUT CONTROL FOR STRESS PERIOD   26   TIME STEP   15
 
 SOLVING FOR HEAD 
                                                   Max.-Head-Change                         Max.-Flux-Residual
  Residual-Control   Outer-Iter.   Inner-Iter.     Column Row Layer    Maximum-Head-Change  Column Row Layer    Maximum-Flux-Residual          L2-NORM 
          0                 1           2             4    7     1       0.1176418761E-01       4    7    1         0.6178500370E+00      0.1449317318E+01
          0                 2           2             4    7     1      -0.1143944237E-02       4    7    1        -0.6178520222E-01      0.1414567267E+00
          0                 3           1             4    7     1       0.7791070839E-04       4    7    1         0.4324964096E-02      0.9861247375E-02

    ------------------------------------------------
       NWT REQUIRED            3 OUTER ITERATIONS 
       AND A TOTAL OF          5 INNER ITERATIONS.
    ------------------------------------------------

 NO OUTPUT CONTROL FOR STRESS PERIOD   26   TIME STEP   16
 
 SOLVING FOR HEAD 
                                                   Max.-Head-Change                         Max.-Flux-Residual
  Residual-Control   Outer-Iter.   Inner-Iter.     Column Row Layer    Maximum-Head-Change  Column Row Layer    Maximum-Flux-Residual          L2-NORM 
          0                 1           2             4    7     1       0.1163961413E-01       4    7    1         0.6112734225E+00      0.1437143182E+01
          0                 2           2             4    7     1      -0.1131829805E-02       4    7    1        -0.6112753613E-01      0.1402677126E+00
          0                 3           1             4    7     1       0.7708565933E-04       4    7    1         0.4278927489E-02      0.9778345064E-02

    ------------------------------------------------
       NWT REQUIRED            3 OUTER ITERATIONS 
       AND A TOTAL OF          5 INNER ITERATIONS.
    ------------------------------------------------

 NO OUTPUT CONTROL FOR STRESS PERIOD   26   TIME STEP   17
 
 SOLVING FOR HEAD 
                                                   Max.-Head-Change                         Max.-Flux-Residual
  Residual-Control   Outer-Iter.   Inner-Iter.     Column Row Layer    Maximum-Head-Change  Column Row Layer    Maximum-Flux-Residual          L2-NORM 
          0                 1           2             4    7     1       0.1151711473E-01       4    7    1         0.6048068989E+00      0.1425148005E+01
          0                 2           2             4    7     1      -0.1119917086E-02       4    7    1        -0.6048087929E-01      0.1390962804E+00
          0                 3           1             4    7     1       0.7627434738E-04       4    7    1         0.4233661549E-02      0.9696671017E-02

    ------------------------------------------------
       NWT REQUIRED            3 OUTER ITERATIONS 
       AND A TOTAL OF          5 INNER ITERATIONS.
    ------------------------------------------------

 NO OUTPUT CONTROL FOR STRESS PERIOD   26   TIME STEP   18
 
 SOLVING FOR HEAD 
                                                   Max.-Head-Change                         Max.-Flux-Residual
  Residual-Control   Outer-Iter.   Inner-Iter.     Column Row Layer    Maximum-Head-Change  Column Row Layer    Maximum-Flux-Residual          L2-NORM 
          0                 1           2             4    7     1       0.1139636688E-01       4    7    1         0.5984331791E+00      0.1413308680E+01
          0                 2           2             4    7     1      -0.1108174714E-02       4    7    1        -0.5984350291E-01      0.1379402647E+00
          0                 3           1             4    7     1       0.7547463608E-04       4    7    1         0.4189045210E-02      0.9616061109E-02

    ------------------------------------------------
       NWT REQUIRED            3 OUTER ITERATIONS 
       AND A TOTAL OF          5 INNER ITERATIONS.
    ------------------------------------------------

 NO OUTPUT CONTROL FOR STRESS PERIOD   26   TIME STEP   19
 
 SOLVING FOR HEAD 
                                                   Max.-Head-Change                         Max.-Flux-Residual
  Residual-Control   Outer-Iter.   Inner-Iter.     Column Row Layer    Maximum-Head-Change  Column Row Layer    Maximum-Flux-Residual          L2-NORM 
          0                 1           2             4    7     1       0.1127760825E-01       4    7    1         0.5921650120E+00      0.1401630480E+01
          0                 2           2             4    7     1      -0.1096625821E-02       4    7    1        -0.5921668197E-01      0.1368003652E+00
          0                 3           1             4    7     1       0.7468810134E-04       4    7    1         0.4145167792E-02      0.9536576652E-02

    ------------------------------------------------
       NWT REQUIRED            3 OUTER ITERATIONS 
       AND A TOTAL OF          5 INNER ITERATIONS.
    ------------------------------------------------

 NO OUTPUT CONTROL FOR STRESS PERIOD   26   TIME STEP   20
 
 SOLVING FOR HEAD 
                                                   Max.-Head-Change                         Max.-Flux-Residual
  Residual-Control   Outer-Iter.   Inner-Iter.     Column Row Layer    Maximum-Head-Change  Column Row Layer    Maximum-Flux-Residual          L2-NORM 
          0                 1           2             4    7     1       0.1116065880E-01       4    7    1         0.5859926164E+00      0.1390120328E+01
          0                 2           2             4    7     1      -0.1085252871E-02       4    7    1        -0.5859943826E-01      0.1356769621E+00
          0                 3           1             4    7     1       0.7391354841E-04       4    7    1         0.4101960735E-02      0.9458270893E-02

    ------------------------------------------------
       NWT REQUIRED            3 OUTER ITERATIONS 
       AND A TOTAL OF          5 INNER ITERATIONS.
    ------------------------------------------------

 NO OUTPUT CONTROL FOR STRESS PERIOD   26   TIME STEP   21
 
 SOLVING FOR HEAD 
                                                   Max.-Head-Change                         Max.-Flux-Residual
  Residual-Control   Outer-Iter.   Inner-Iter.     Column Row Layer    Maximum-Head-Change  Column Row Layer    Maximum-Flux-Residual          L2-NORM 
          0                 1           2             4    7     1       0.1104548169E-01       4    7    1         0.5799140258E+00      0.1378768879E+01
          0                 2           2             4    7     1      -0.1075865890E-02       4    7    1        -0.5810924373E-01      0.1346061338E+00
          0                 3           1             4    7     1       0.7327422456E-04       4    7    1         0.4067646983E-02      0.9383804932E-02

    ------------------------------------------------
       NWT REQUIRED            3 OUTER ITERATIONS 
       AND A TOTAL OF          5 INNER ITERATIONS.
    ------------------------------------------------

 NO OUTPUT CONTROL FOR STRESS PERIOD   26   TIME STEP   22
 
 SOLVING FOR HEAD 
                                                   Max.-Head-Change                         Max.-Flux-Residual
  Residual-Control   Outer-Iter.   Inner-Iter.     Column Row Layer    Maximum-Head-Change  Column Row Layer    Maximum-Flux-Residual          L2-NORM 
          0                 1           2             4    7     1       0.1092777039E-01       4    7    1         0.5738379675E+00      0.1367535772E+01
          0                 2           2             4    7     1      -0.1062605596E-02       4    7    1        -0.5738398048E-01      0.1334731283E+00
          0                 3           1             4    7     1       0.7237115320E-04       4    7    1         0.4016878597E-02      0.9304613935E-02

    ------------------------------------------------
       NWT REQUIRED            3 OUTER ITERATIONS 
       AND A TOTAL OF          5 INNER ITERATIONS.
    ------------------------------------------------

 NO OUTPUT CONTROL FOR STRESS PERIOD   26   TIME STEP   23
 
 SOLVING FOR HEAD 
                                                   Max.-Head-Change                         Max.-Flux-Residual
  Residual-Control   Outer-Iter.   Inner-Iter.     Column Row Layer    Maximum-Head-Change  Column Row Layer    Maximum-Flux-Residual          L2-NORM 
          0                 1           2             4    7     1       0.1081382102E-01       4    7    1         0.5678165461E+00      0.1356440587E+01
          0                 2           2             4    7     1      -0.1051524371E-02       4    7    1        -0.5678183362E-01      0.1323905868E+00
          0                 3           1             4    7     1       0.7161646817E-04       4    7    1         0.3974728324E-02      0.9229158811E-02

    ------------------------------------------------
       NWT REQUIRED            3 OUTER ITERATIONS 
       AND A TOTAL OF          5 INNER ITERATIONS.
    ------------------------------------------------

 NO OUTPUT CONTROL FOR STRESS PERIOD   26   TIME STEP   24
 
 SOLVING FOR HEAD 
                                                   Max.-Head-Change                         Max.-Flux-Residual
  Residual-Control   Outer-Iter.   Inner-Iter.     Column Row Layer    Maximum-Head-Change  Column Row Layer    Maximum-Flux-Residual          L2-NORM 
          0                 1           2             4    7     1       0.1070171755E-01       4    7    1         0.5618935118E+00      0.1345491483E+01
          0                 2           2             4    7     1      -0.1040622664E-02       4    7    1        -0.5618952564E-01      0.1313223077E+00
          0                 3           1             4    7     1       0.7087400944E-04       4    7    1         0.3933266787E-02      0.9154683685E-02

    ------------------------------------------------
       NWT REQUIRED            3 OUTER ITERATIONS 
       AND A TOTAL OF          5 INNER ITERATIONS.
    ------------------------------------------------

 NO OUTPUT CONTROL FOR STRESS PERIOD   26   TIME STEP   25
 
 SOLVING FOR HEAD 
                                                   Max.-Head-Change                         Max.-Flux-Residual
  Residual-Control   Outer-Iter.   Inner-Iter.     Column Row Layer    Maximum-Head-Change  Column Row Layer    Maximum-Flux-Residual          L2-NORM 
          0                 1           2             4    7     1       0.1059141660E-01       4    7    1         0.5560661857E+00      0.1334693898E+01
          0                 2           2             4    7     1      -0.1029896276E-02       4    7    1        -0.5560678861E-01      0.1302691836E+00
          0                 3           1             4    7     1       0.7014349041E-04       4    7    1         0.3892475235E-02      0.9081269492E-02

    ------------------------------------------------
       NWT REQUIRED            3 OUTER ITERATIONS 
       AND A TOTAL OF          5 INNER ITERATIONS.
    ------------------------------------------------

 NO OUTPUT CONTROL FOR STRESS PERIOD   26   TIME STEP   26
 
 SOLVING FOR HEAD 
                                                   Max.-Head-Change                         Max.-Flux-Residual
  Residual-Control   Outer-Iter.   Inner-Iter.     Column Row Layer    Maximum-Head-Change  Column Row Layer    Maximum-Flux-Residual          L2-NORM 
          0                 1           2             4    7     1       0.1048300546E-01       4    7    1         0.5503396888E+00      0.1324045655E+01
          0                 2           2             4    7     1      -0.1019353678E-02       4    7    1        -0.5503413465E-01      0.1292306515E+00
          0                 3           1             4    7     1       0.6942548725E-04       4    7    1         0.3852389480E-02      0.9008875981E-02

    ------------------------------------------------
       NWT REQUIRED            3 OUTER ITERATIONS 
       AND A TOTAL OF          5 INNER ITERATIONS.
    ------------------------------------------------

 NO OUTPUT CONTROL FOR STRESS PERIOD   26   TIME STEP   27
 
 SOLVING FOR HEAD 
                                                   Max.-Head-Change                         Max.-Flux-Residual
  Residual-Control   Outer-Iter.   Inner-Iter.     Column Row Layer    Maximum-Head-Change  Column Row Layer    Maximum-Flux-Residual          L2-NORM 
          0                 1           2             4    7     1       0.1037629649E-01       4    7    1         0.5447038075E+00      0.1313537663E+01
          0                 2           2             4    7     1      -0.1008976627E-02       4    7    1        -0.5447054239E-01      0.1282059749E+00
          0                 3           1             4    7     1       0.6871875885E-04       4    7    1         0.3812938053E-02      0.8937442774E-02

    ------------------------------------------------
       NWT REQUIRED            3 OUTER ITERATIONS 
       AND A TOTAL OF          5 INNER ITERATIONS.
    ------------------------------------------------

 NO OUTPUT CONTROL FOR STRESS PERIOD   26   TIME STEP   28
 
 SOLVING FOR HEAD 
                                                   Max.-Head-Change                         Max.-Flux-Residual
  Residual-Control   Outer-Iter.   Inner-Iter.     Column Row Layer    Maximum-Head-Change  Column Row Layer    Maximum-Flux-Residual          L2-NORM 
          0                 1           2             4    7     1       0.1027138396E-01       4    7    1         0.5391635524E+00      0.1303162275E+01
          0                 2           2             4    7     1      -0.9987743030E-03       4    7    1        -0.5391651288E-01      0.1271945344E+00
          0                 3           1             4    7     1       0.6802392872E-04       4    7    1         0.3774156007E-02      0.8866940862E-02

    ------------------------------------------------
       NWT REQUIRED            3 OUTER ITERATIONS 
       AND A TOTAL OF          5 INNER ITERATIONS.
    ------------------------------------------------

 NO OUTPUT CONTROL FOR STRESS PERIOD   26   TIME STEP   29
 
 SOLVING FOR HEAD 
                                                   Max.-Head-Change                         Max.-Flux-Residual
  Residual-Control   Outer-Iter.   Inner-Iter.     Column Row Layer    Maximum-Head-Change  Column Row Layer    Maximum-Flux-Residual          L2-NORM 
          0                 1           2             4    7     1       0.1016808469E-01       4    7    1         0.5337090716E+00      0.1292933098E+01
          0                 2           2             4    7     1      -0.9887288597E-03       4    7    1        -0.5337106092E-01      0.1261971966E+00
          0                 3           1             4    7     1       0.6733978345E-04       4    7    1         0.3735974388E-02      0.8797416079E-02

    ------------------------------------------------
       NWT REQUIRED            3 OUTER ITERATIONS 
       AND A TOTAL OF          5 INNER ITERATIONS.
    ------------------------------------------------

 NO OUTPUT CONTROL FOR STRESS PERIOD   26   TIME STEP   30



 STREAM LISTING     PERIOD     26   STEP       30

 LAYER ROW COL. STREAM  RCH.  FLOW INTO     FLOW TO   FLOW OUT OF   OVRLND.     DIRECT     STREAM       STREAM     STREAM     STREAM   STREAMBED  STREAMBED
                SEG.NO.  NO.  STRM. RCH.    AQUIFER    STRM. RCH.    RUNOFF     PRECIP       ET          HEAD       DEPTH      WIDTH   CONDCTNC.   GRADIENT

   1    1    1     1     1    1.6500E+01  1.9759E-01   1.6303E+01  0.000E+00  0.000E+00  0.000E+00  1.09409E+03  1.039E+00  1.087E+01  4.893E-02  1.346E+00
   1    2    2     1     2    1.6303E+01  3.0466E-01   1.5998E+01  0.000E+00  0.000E+00  0.000E+00  1.08909E+03  1.034E+00  1.079E+01  7.552E-02  1.345E+00
   1    3    3     1     3    1.5998E+01  2.5853E-01   1.5739E+01  0.000E+00  0.000E+00  0.000E+00  1.08345E+03  1.029E+00  1.070E+01  6.417E-02  1.343E+00
   1    3    4     1     4    1.5739E+01  2.3700E-01   1.5502E+01  0.000E+00  0.000E+00  0.000E+00  1.07843E+03  1.024E+00  1.061E+01  5.890E-02  1.341E+00
   1    4    5     2     1    1.3502E+01  2.9865E-01   1.3204E+01  0.000E+00  0.000E+00  0.000E+00  1.07276E+03  8.289E-01  1.200E+01  7.800E-02  1.276E+00
   1    5    6     2     2    1.3204E+01  2.2914E-01   1.2975E+01  0.000E+00  0.000E+00  0.000E+00  1.06733E+03  8.190E-01  1.200E+01  6.000E-02  1.273E+00
   1    6    6     2     3    1.2975E+01  2.2862E-01   1.2746E+01  0.000E+00  0.000E+00  0.000E+00  1.06260E+03  8.104E-01  1.200E+01  6.000E-02  1.270E+00
   1    7    6     2     4    1.2746E+01  2.2810E-01   1.2518E+01  0.000E+00  0.000E+00  0.000E+00  1.05788E+03  8.017E-01  1.200E+01  6.000E-02  1.267E+00
   1    8    6     2     5    1.2518E+01  2.2758E-01   1.2290E+01  0.000E+00  0.000E+00  0.000E+00  1.05315E+03  7.930E-01  1.200E+01  6.000E-02  1.264E+00
   1    3    5     3     1    2.0000E+00  2.8252E-01   1.7175E+00  0.000E+00  0.000E+00  0.000E+00  1.07555E+03  1.909E+00  9.636E+00  7.227E-02  1.955E+00
   1    3    6     3     2    1.7175E+00  2.4905E-01   1.4684E+00  0.000E+00  0.000E+00  0.000E+00  1.07264E+03  1.727E+00  8.909E+00  6.682E-02  1.864E+00
   1    3    7     3     3    1.4684E+00  1.9718E-01   1.2712E+00  0.000E+00  0.000E+00  0.000E+00  1.06987E+03  1.555E+00  8.218E+00  5.547E-02  1.777E+00
   1    4    8     3     4    1.2712E+00  2.2567E-01   1.0456E+00  0.000E+00  0.000E+00  0.000E+00  1.06682E+03  1.364E+00  7.455E+00  6.709E-02  1.682E+00
   1    5    8     3     5    1.0456E+00  1.5790E-01   8.8768E-01  0.000E+00  0.000E+00  0.000E+00  1.06362E+03  1.164E+00  6.655E+00  4.991E-02  1.582E+00
   1    6    8     3     6    8.8768E-01  5.5980E-02   8.3170E-01  0.000E+00  0.000E+00  0.000E+00  1.06158E+03  1.036E+00  6.145E+00  1.844E-02  1.518E+00
   1    5   10     4     1    1.0000E+01  9.0919E-02   9.9091E+00  0.000E+00  0.000E+00  0.000E+00  1.07836E+03  6.368E-01  1.000E+01  2.500E-02  1.212E+00
   1    5    9     4     2    9.9091E+00  1.8158E-01   9.7275E+00  0.000E+00  0.000E+00  0.000E+00  1.07154E+03  6.315E-01  1.000E+01  5.000E-02  1.211E+00
   1    6    8     4     3    9.7275E+00  1.2689E-01   9.6006E+00  0.000E+00  0.000E+00  0.000E+00  1.06381E+03  6.256E-01  1.000E+01  3.500E-02  1.209E+00
   1    6    8     5     1    1.0432E+01  2.2686E-01   1.0205E+01  0.000E+00  0.000E+00  0.000E+00  1.05868E+03  6.790E-01  1.542E+01  6.166E-02  1.226E+00
   1    7    7     5     2    1.0205E+01  2.7894E-01   9.9265E+00  0.000E+00  0.000E+00  0.000E+00  1.05417E+03  6.732E-01  1.519E+01  7.594E-02  1.224E+00
   1    8    7     5     3    9.9265E+00  1.9221E-01   9.7343E+00  0.000E+00  0.000E+00  0.000E+00  1.04992E+03  6.676E-01  1.497E+01  5.241E-02  1.223E+00
   1    8    6     5     4    9.7343E+00  1.3577E-01   9.5985E+00  0.000E+00  0.000E+00  0.000E+00  1.04691E+03  6.637E-01  1.482E+01  3.706E-02  1.221E+00
   1    9    6     6     1    2.1889E+01  2.4742E-01   2.1641E+01  0.000E+00  0.000E+00  0.000E+00  1.04385E+03  1.124E+00  1.200E+01  6.000E-02  1.375E+00
   1   10    7     6     2    2.1641E+01  2.4696E-01   2.1395E+01  0.000E+00  0.000E+00  0.000E+00  1.03930E+03  1.116E+00  1.200E+01  6.000E-02  1.372E+00
   1   11    7     6     3    2.1395E+01  2.4650E-01   2.1148E+01  0.000E+00  0.000E+00  0.000E+00  1.03474E+03  1.108E+00  1.200E+01  6.000E-02  1.369E+00
   1   12    7     6     4    2.1148E+01  2.4603E-01   2.0902E+01  0.000E+00  0.000E+00  0.000E+00  1.03019E+03  1.101E+00  1.200E+01  6.000E-02  1.367E+00
   1   13    7     6     5    2.0902E+01 -2.1327E-03   2.0904E+01  0.000E+00  0.000E+00  0.000E+00  1.02701E+03  1.097E+00  1.200E+01  2.400E-01 -2.962E-03
   1   14    9     7     1    1.5000E+02  1.3405E+00   1.4866E+02  0.000E+00  0.000E+00  0.000E+00  1.03987E+03  2.288E+00  5.529E+01  5.593E-01  7.989E-01
   1   13    8     7     2    1.4866E+02  1.8496E+00   1.4681E+02  0.000E+00  0.000E+00  0.000E+00  1.03478E+03  2.279E+00  5.526E+01  6.148E-01  1.003E+00
   1   13    7     7     3    1.4681E+02  1.4938E+00   1.4532E+02  0.000E+00  0.000E+00  0.000E+00  1.02969E+03  2.270E+00  5.522E+01  5.584E-01  8.916E-01
   1   13    6     8     1    1.6622E+02  9.2803E-01   1.6529E+02  0.000E+00  0.000E+00  0.000E+00  1.02480E+03  2.924E+00  4.240E+01  4.321E-01  7.159E-01
   1   13    5     8     2    1.6529E+02  1.8645E-01   1.6511E+02  0.000E+00  0.000E+00  0.000E+00  1.01855E+03  2.921E+00  4.235E+01  4.316E-01  1.440E-01
   1   13    4     8     3    1.6511E+02 -2.3913E+00   1.6750E+02  0.000E+00  0.000E+00  0.000E+00  1.01230E+03  2.928E+00  4.246E+01  4.326E+00 -1.842E-01
   1   13    3     8     4    1.6750E+02 -3.6250E+00   1.7112E+02  0.000E+00  0.000E+00  0.000E+00  1.00607E+03  2.948E+00  4.274E+01  4.356E+00 -2.774E-01
   1   13    2     8     5    1.7112E+02 -2.5677E+00   1.7369E+02  0.000E+00  0.000E+00  0.000E+00  9.99843E+02  2.968E+00  4.303E+01  4.385E+00 -1.952E-01
   1   13    1     8     6    1.7369E+02 -1.9740E+00   1.7566E+02  0.000E+00  0.000E+00  0.000E+00  9.94857E+02  2.982E+00  4.324E+01  2.644E+00 -2.489E-01
   1    8    6     9     1    0.0000E+00  0.0000E+00   0.0000E+00  0.000E+00  0.000E+00  0.000E+00  1.07875E+03  0.000E+00  4.000E+00  0.000E+00  1.000E+00
   1    8    5     9     2    0.0000E+00  0.0000E+00   0.0000E+00  0.000E+00  0.000E+00  0.000E+00  1.07825E+03  0.000E+00  4.000E+00  0.000E+00  1.000E+00





UNSATURATED ZONE PACKAGE VOLUMETRIC BUDGET FOR  TIME STEP    30 STRESS PERIOD   26
  ------------------------------------------------------------------------------



     CUMULATIVE VOLUMES      L**3       RATES FOR THIS TIME STEP      L**3/T
     ------------------                 ------------------------

           IN:                                      IN:
           ---                                      ---
        INFILTRATION =  1038921865.1422          INFILTRATION =           0.8475

          OUT:                                     OUT:
          ----                                     ----
              UZF ET =   863312165.0145                UZF ET =           0.7500
        UZF RECHARGE =     2543037.3450          UZF RECHARGE =           0.0452

            IN - OUT =   173066662.7827              IN - OUT =       5.2254E-02

          STORAGE:                                 STORAGE:
          --------                                 --------
      STORAGE CHANGE =   173067129.2601        STORAGE CHANGE =       5.2254E-02

 PERCENT DISCREPANCY IS DIFFERENCE BETWEEN IN-OUT MINUS CHANGE IN STORAGE
 DIVIDED BY THE AVERAGE OF IN AND OUT TIMES 100

 PERCENT DISCREPANCY =          -0.00     PERCENT DISCREPANCY =           0.00






1
  VOLUMETRIC BUDGET FOR AGRICULTURAL FIELDS AT  END OF TIME STEP   30, STRESS PERIOD  26
  ------------------------------------------------------------------------------

     CUMULATIVE VOLUMES      L**3       RATES FOR THIS TIME STEP      L**3/T
     ------------------                 ------------------------

           IN:                                      IN:
           ---                                      ---
               AG WELLS  =   391007552.0000                 AG WELLS  =           0.0000
      DIVERSION SEGMENTS =   592111808.0000        DIVERSION SEGMENTS =           0.0000
           GW IRRIGATION =           0.0000             GW IRRIGATION =           0.0000
           SW IRRIGATION =           0.0000             SW IRRIGATION =           0.0000
        SYSTEM LOSSES GW =           0.0000          SYSTEM LOSSES GW =           0.0000
        SYSTEM LOSSES SW =           0.0000          SYSTEM LOSSES SW =           0.0000

                TOTAL IN =   983119360.0000                  TOTAL IN =           0.0000

          OUT:                                     OUT:
          ----                                     ----
               AG WELLS  =           0.0000                 AG WELLS  =           0.0000
      DIVERSION SEGMENTS =           0.0000        DIVERSION SEGMENTS =           0.0000
           GW IRRIGATION =   391007552.0000             GW IRRIGATION =           0.0000
           SW IRRIGATION =   592123584.0000             SW IRRIGATION =           0.0000
        SYSTEM LOSSES GW =           0.0000          SYSTEM LOSSES GW =           0.0000
        SYSTEM LOSSES SW =           0.0000          SYSTEM LOSSES SW =           0.0000

               TOTAL OUT =   983131136.0000                 TOTAL OUT =           0.0000

                IN - OUT =      -11776.0000                  IN - OUT =           0.0000

     PERCENT DISCREPANCY =          -0.00         PERCENT DISCREPANCY =           0.00



1
  VOLUMETRIC BUDGET FOR ENTIRE MODEL AT END OF TIME STEP   30, STRESS PERIOD  26
  ------------------------------------------------------------------------------

     CUMULATIVE VOLUMES      L**3       RATES FOR THIS TIME STEP      L**3/T
     ------------------                 ------------------------

           IN:                                      IN:
           ---                                      ---
             STORAGE     =   637158336.0000               STORAGE     =           3.7211
       CONSTANT HEAD     =           0.0000         CONSTANT HEAD     =           0.0000
     HEAD DEP BOUNDS     =    18816488.0000       HEAD DEP BOUNDS     =           0.2861
      STREAM LEAKAGE     =   781602496.0000        STREAM LEAKAGE     =          11.3967
        UZF RECHARGE     =     2543037.2500          UZF RECHARGE     =       4.5246E-02
               GW ET     =           0.0000                 GW ET     =           0.0000
     SURFACE LEAKAGE     =           0.0000       SURFACE LEAKAGE     =           0.0000
           AG WELLS      =           0.0000             AG WELLS      =           0.0000

                TOTAL IN =  1440120320.0000                  TOTAL IN =          15.4491

          OUT:                                     OUT:
          ----                                     ----
             STORAGE     =   317404288.0000               STORAGE     =           4.6001
       CONSTANT HEAD     =           0.0000         CONSTANT HEAD     =           0.0000
     HEAD DEP BOUNDS     =    19128614.0000       HEAD DEP BOUNDS     =           0.2890
      STREAM LEAKAGE     =   710446400.0000        STREAM LEAKAGE     =          10.5601
        UZF RECHARGE     =           0.0000          UZF RECHARGE     =           0.0000
               GW ET     =     2141481.7500                 GW ET     =           0.0000
     SURFACE LEAKAGE     =           0.0000       SURFACE LEAKAGE     =           0.0000
           AG WELLS      =   391007552.0000             AG WELLS      =           0.0000

               TOTAL OUT =  1440128384.0000                 TOTAL OUT =          15.4492

                IN - OUT =       -8064.0000                  IN - OUT =      -1.3065E-04

     PERCENT DISCREPANCY =          -0.00         PERCENT DISCREPANCY =          -0.00






         TIME SUMMARY AT END OF TIME STEP   30 IN STRESS PERIOD   26
                    SECONDS     MINUTES      HOURS       DAYS        YEARS
                    -----------------------------------------------------------
   TIME STEP LENGTH  87667.      1461.1      24.352      1.0147     2.77799E-03
 STRESS PERIOD TIME 2.63000E+06  43833.      730.56      30.440     8.33397E-02
         TOTAL TIME 6.58368E+07 1.09728E+06  18288.      762.00      2.0862    
1
1
                            STRESS PERIOD NO.   27, LENGTH =   2630000.    
                            -----------------------------------------------

                              NUMBER OF TIME STEPS =    30

                               MULTIPLIER FOR DELT =     1.000

                            INITIAL TIME STEP SIZE =   87666.66    

 REUSING NON-PARAMETER GHB CELLS FROM LAST STRESS PERIOD

      2 GHB CELLS

 REUSING STREAM SEGMENT DATA FROM LAST STRESS PERIOD



            AREAL INFILTRATION RATE
 READING ON UNIT   19 WITH FORMAT: (FREE)              

            1           2           3           4           5           6           7           8           9          10
 ........................................................................................................................
   1   1.0000E-10  2.0000E-10   0.000       0.000       0.000       0.000       0.000       0.000       0.000       0.000    
   2   2.0000E-10  1.0000E-10  2.0000E-10   0.000       0.000      8.0000E-10  8.0000E-10  5.0000E-10   0.000       0.000    
   3    0.000      5.0000E-10  1.0000E-10  1.0000E-10  8.0000E-10  8.0000E-10  5.0000E-10  5.0000E-10   0.000       0.000    
   4   8.0000E-10  5.0000E-10  1.0000E-10  1.0000E-10  1.0000E-10  1.0000E-10  1.0000E-10  1.0000E-10  2.0000E-10   0.000    
   5   8.0000E-10  5.0000E-10  1.0000E-10  1.0000E-10  1.0000E-10  1.0000E-10  1.0000E-10  1.0000E-10  1.0000E-10  1.0000E-10
   6   8.0000E-10  5.0000E-10  5.0000E-10  2.0000E-10  2.0000E-10  1.0000E-10  1.0000E-10  1.0000E-10  1.0000E-10  5.0000E-10
   7   8.0000E-10  5.0000E-10  5.0000E-10  2.0000E-10  2.0000E-10  1.0000E-10  1.0000E-10  2.0000E-10  2.0000E-10   0.000    
   8    0.000      5.0000E-10  5.0000E-10  2.0000E-10  2.0000E-10  1.0000E-10  1.0000E-10  2.0000E-10  5.0000E-10   0.000    
   9    0.000      5.0000E-10  5.0000E-10  2.0000E-10  2.0000E-10  1.0000E-10  1.0000E-10  2.0000E-10  5.0000E-10   0.000    
  10    0.000      5.0000E-10  5.0000E-10  2.0000E-10  2.0000E-10  1.0000E-10  1.0000E-10  2.0000E-10  5.0000E-10  8.0000E-10
  11    0.000      1.0000E-10  1.0000E-10  1.0000E-10  1.0000E-10  1.0000E-10  1.0000E-10  2.0000E-10  5.0000E-10   0.000    
  12   1.0000E-10  1.0000E-10  1.0000E-10  1.0000E-10  1.0000E-10  1.0000E-10  1.0000E-10  1.0000E-10  2.0000E-10   0.000    
  13   1.0000E-10  1.0000E-10  2.0000E-10  2.0000E-10  2.0000E-10  2.0000E-10  2.0000E-10  1.0000E-10  1.0000E-10   0.000    
  14    0.000      2.0000E-10  5.0000E-10  5.0000E-10  5.0000E-10  5.0000E-10  5.0000E-10  2.0000E-10  1.0000E-10   0.000    
  15    0.000       0.000      8.0000E-10  8.0000E-10  8.0000E-10  8.0000E-10   0.000       0.000       0.000       0.000    

                  ET RATE =  5.000000E-10

 USING ET EXTINCTION DEPTH FROM PREVIOUS STRESS PERIOD. CURRENT PERIOD IS:      27

 USING EXTINCTION WATER CONTENT FROM PREVIOUS STRESS PERIOD. CURRENT PERIOD IS:      27

 USING AIR ENTRY PRESSURE FROM PREVIOUS STRESS PERIOD. CURRENT PERIOD IS:      27

 USING ROOT PRESSURE HEAD FROM PREVIOUS STRESS PERIOD. CURRENT PERIOD IS:      27

 USING ROOT ACTIVITY FROM PREVIOUS STRESS PERIOD. CURRENT PERIOD IS:      27

 PROCESSING AG STRESS PERIOD DATA

 READING AG STRESS PERIOD DATA

 READING IRRIGATION SEGMENT

 READING IRRIGATION WELL

 READING SUPPLEMENTAL WELL

 END PROCESSING AG STRESS PERIOD DATA OPTIONS
 
 SOLVING FOR HEAD 
                                                   Max.-Head-Change                         Max.-Flux-Residual
  Residual-Control   Outer-Iter.   Inner-Iter.     Column Row Layer    Maximum-Head-Change  Column Row Layer    Maximum-Flux-Residual          L2-NORM 
          0                 1           2             4    7     1       0.1006636043E-01       4    7    1         0.5283382377E+00      0.1282831461E+01
          0                 2           2             4    7     1      -0.9788366040E-03       4    7    1        -0.5283397376E-01      0.1252126291E+00
          0                 3           1             4    7     1       0.6666606991E-04       4    7    1         0.3698378312E-02      0.8728793166E-02

    ------------------------------------------------
       NWT REQUIRED            3 OUTER ITERATIONS 
       AND A TOTAL OF          5 INNER ITERATIONS.
    ------------------------------------------------

 NO OUTPUT CONTROL FOR STRESS PERIOD   27   TIME STEP    1
 
 SOLVING FOR HEAD 
                                                   Max.-Head-Change                         Max.-Flux-Residual
  Residual-Control   Outer-Iter.   Inner-Iter.     Column Row Layer    Maximum-Head-Change  Column Row Layer    Maximum-Flux-Residual          L2-NORM 
          0                 1           2             4    7     1       0.9966329185E-02       4    7    1         0.5230564368E+00      0.1272421643E+01
          0                 2           2             4    7     1      -0.9691089361E-03       4    7    1        -0.5230579004E-01      0.1246169536E+00
          0                 3           1             4    7     1       0.6600356734E-04       4    7    1         0.3661405472E-02      0.8719355275E-02

    ------------------------------------------------
       NWT REQUIRED            3 OUTER ITERATIONS 
       AND A TOTAL OF          5 INNER ITERATIONS.
    ------------------------------------------------

 NO OUTPUT CONTROL FOR STRESS PERIOD   27   TIME STEP    2
 
 SOLVING FOR HEAD 
                                                   Max.-Head-Change                         Max.-Flux-Residual
  Residual-Control   Outer-Iter.   Inner-Iter.     Column Row Layer    Maximum-Head-Change  Column Row Layer    Maximum-Flux-Residual          L2-NORM 
          0                 1           2             4    7     1       0.9868050542E-02       4    7    1         0.5178624221E+00      0.1382482959E+01
          0                 2           2             4    7     1      -0.9595513379E-03       4    7    1        -0.5178638492E-01      0.1348667803E+00
          0                 3           1             4    7     1       0.6535265809E-04       4    7    1         0.3625047114E-02      0.9349935291E-02

    ------------------------------------------------
       NWT REQUIRED            3 OUTER ITERATIONS 
       AND A TOTAL OF          5 INNER ITERATIONS.
    ------------------------------------------------

 NO OUTPUT CONTROL FOR STRESS PERIOD   27   TIME STEP    3
 
 SOLVING FOR HEAD 
                                                   Max.-Head-Change                         Max.-Flux-Residual
  Residual-Control   Outer-Iter.   Inner-Iter.     Column Row Layer    Maximum-Head-Change  Column Row Layer    Maximum-Flux-Residual          L2-NORM 
          0                 1           2             4    7     1       0.9771337651E-02       4    7    1         0.5127519307E+00      0.1356234512E+01
          0                 2           2             4    7     1      -0.9501460509E-03       4    7    1        -0.5127533227E-01      0.1323111476E+00
          0                 3           1             4    7     1       0.6471212153E-04       4    7    1         0.3589273453E-02      0.9178653838E-02

    ------------------------------------------------
       NWT REQUIRED            3 OUTER ITERATIONS 
       AND A TOTAL OF          5 INNER ITERATIONS.
    ------------------------------------------------

 NO OUTPUT CONTROL FOR STRESS PERIOD   27   TIME STEP    4
 
 SOLVING FOR HEAD 
                                                   Max.-Head-Change                         Max.-Flux-Residual
  Residual-Control   Outer-Iter.   Inner-Iter.     Column Row Layer    Maximum-Head-Change  Column Row Layer    Maximum-Flux-Residual          L2-NORM 
          0                 1           2             4    7     1       0.9676148702E-02       4    7    1         0.5077226208E+00      0.1332522421E+01
          0                 2           2             4    7     1      -0.9408889968E-03       4    7    1        -0.5077239790E-01      0.1300028885E+00
          0                 3           1             4    7     1       0.6408167931E-04       4    7    1         0.3554068086E-02      0.9023754414E-02

    ------------------------------------------------
       NWT REQUIRED            3 OUTER ITERATIONS 
       AND A TOTAL OF          5 INNER ITERATIONS.
    ------------------------------------------------

 NO OUTPUT CONTROL FOR STRESS PERIOD   27   TIME STEP    5
 
 SOLVING FOR HEAD 
                                                   Max.-Head-Change                         Max.-Flux-Residual
  Residual-Control   Outer-Iter.   Inner-Iter.     Column Row Layer    Maximum-Head-Change  Column Row Layer    Maximum-Flux-Residual          L2-NORM 
          0                 1           2             4    7     1       0.9582712771E-02       4    7    1         0.5027870668E+00      0.1310978253E+01
          0                 2           2             4    7     1      -0.9318024648E-03       4    7    1        -0.5027883923E-01      0.1279052941E+00
          0                 3           1             4    7     1       0.6346284876E-04       4    7    1         0.3519518980E-02      0.8883250604E-02

    ------------------------------------------------
       NWT REQUIRED            3 OUTER ITERATIONS 
       AND A TOTAL OF          5 INNER ITERATIONS.
    ------------------------------------------------

 NO OUTPUT CONTROL FOR STRESS PERIOD   27   TIME STEP    6
 
 SOLVING FOR HEAD 
                                                   Max.-Head-Change                         Max.-Flux-Residual
  Residual-Control   Outer-Iter.   Inner-Iter.     Column Row Layer    Maximum-Head-Change  Column Row Layer    Maximum-Flux-Residual          L2-NORM 
          0                 1           2             4    7     1       0.9490575571E-02       4    7    1         0.4979202912E+00      0.1291317397E+01
          0                 2           2             4    7     1      -0.9228422641E-03       4    7    1        -0.4979215846E-01      0.1259912261E+00
          0                 3           1             4    7     1       0.6285262069E-04       4    7    1         0.3485451337E-02      0.8754517697E-02

    ------------------------------------------------
       NWT REQUIRED            3 OUTER ITERATIONS 
       AND A TOTAL OF          5 INNER ITERATIONS.
    ------------------------------------------------

 NO OUTPUT CONTROL FOR STRESS PERIOD   27   TIME STEP    7
 
 SOLVING FOR HEAD 
                                                   Max.-Head-Change                         Max.-Flux-Residual
  Residual-Control   Outer-Iter.   Inner-Iter.     Column Row Layer    Maximum-Head-Change  Column Row Layer    Maximum-Flux-Residual          L2-NORM 
          0                 1           2             4    7     1       0.9400112416E-02       4    7    1         0.4931429661E+00      0.1273284188E+01
          0                 2           2             4    7     1      -0.9140449020E-03       4    7    1        -0.4931442287E-01      0.1242343577E+00
          0                 3           1             4    7     1       0.6225348195E-04       4    7    1         0.3452009881E-02      0.8635791669E-02

    ------------------------------------------------
       NWT REQUIRED            3 OUTER ITERATIONS 
       AND A TOTAL OF          5 INNER ITERATIONS.
    ------------------------------------------------

 NO OUTPUT CONTROL FOR STRESS PERIOD   27   TIME STEP    8
 
 SOLVING FOR HEAD 
                                                   Max.-Head-Change                         Max.-Flux-Residual
  Residual-Control   Outer-Iter.   Inner-Iter.     Column Row Layer    Maximum-Head-Change  Column Row Layer    Maximum-Flux-Residual          L2-NORM 
          0                 1           2             4    7     1       0.9311000524E-02       4    7    1         0.4884376954E+00      0.1256645359E+01
          0                 2           2             4    7     1      -0.9053789698E-03       4    7    1        -0.4884389281E-01      0.1226139655E+00
          0                 3           1             4    7     1       0.6166329301E-04       4    7    1         0.3419072788E-02      0.8526326577E-02

    ------------------------------------------------
       NWT REQUIRED            3 OUTER ITERATIONS 
       AND A TOTAL OF          5 INNER ITERATIONS.
    ------------------------------------------------

 NO OUTPUT CONTROL FOR STRESS PERIOD   27   TIME STEP    9
 
 SOLVING FOR HEAD 
                                                   Max.-Head-Change                         Max.-Flux-Residual
  Residual-Control   Outer-Iter.   Inner-Iter.     Column Row Layer    Maximum-Head-Change  Column Row Layer    Maximum-Flux-Residual          L2-NORM 
          0                 1           2             4    7     1       0.9223341781E-02       4    7    1         0.4838098574E+00      0.1241211478E+01
          0                 2           2             4    7     1      -0.8968543861E-03       4    7    1        -0.4838110614E-01      0.1211097732E+00
          0                 3           1             4    7     1       0.6108272945E-04       4    7    1         0.3386677712E-02      0.8424016255E-02

    ------------------------------------------------
       NWT REQUIRED            3 OUTER ITERATIONS 
       AND A TOTAL OF          5 INNER ITERATIONS.
    ------------------------------------------------

 NO OUTPUT CONTROL FOR STRESS PERIOD   27   TIME STEP   10
 
 SOLVING FOR HEAD 
                                                   Max.-Head-Change                         Max.-Flux-Residual
  Residual-Control   Outer-Iter.   Inner-Iter.     Column Row Layer    Maximum-Head-Change  Column Row Layer    Maximum-Flux-Residual          L2-NORM 
          0                 1           2             4    7     1       0.9136962787E-02       4    7    1         0.4792499916E+00      0.1226835386E+01
          0                 2           2             4    7     1      -0.8884542745E-03       4    7    1        -0.4792511674E-01      0.1197091771E+00
          0                 3           1             4    7     1       0.6051064282E-04       4    7    1         0.3354758476E-02      0.8328923701E-02

    ------------------------------------------------
       NWT REQUIRED            3 OUTER ITERATIONS 
       AND A TOTAL OF          5 INNER ITERATIONS.
    ------------------------------------------------

 NO OUTPUT CONTROL FOR STRESS PERIOD   27   TIME STEP   11
 
 SOLVING FOR HEAD 
                                                   Max.-Head-Change                         Max.-Flux-Residual
  Residual-Control   Outer-Iter.   Inner-Iter.     Column Row Layer    Maximum-Head-Change  Column Row Layer    Maximum-Flux-Residual          L2-NORM 
          0                 1           2             4    7     1       0.9051970315E-02       4    7    1         0.4747638512E+00      0.1213375438E+01
          0                 2           2             4    7     1      -0.8801890286E-03       4    7    1        -0.4747649997E-01      0.1183968111E+00
          0                 3           1             4    7     1       0.5994774041E-04       4    7    1         0.3323355332E-02      0.8239472766E-02

    ------------------------------------------------
       NWT REQUIRED            3 OUTER ITERATIONS 
       AND A TOTAL OF          5 INNER ITERATIONS.
    ------------------------------------------------

 NO OUTPUT CONTROL FOR STRESS PERIOD   27   TIME STEP   12
 
 SOLVING FOR HEAD 
                                                   Max.-Head-Change                         Max.-Flux-Residual
  Residual-Control   Outer-Iter.   Inner-Iter.     Column Row Layer    Maximum-Head-Change  Column Row Layer    Maximum-Flux-Residual          L2-NORM 
          0                 1           2             4    7     1       0.8968326422E-02       4    7    1         0.4703496003E+00      0.1200698887E+01
          0                 2           2             4    7     1      -0.8720549561E-03       4    7    1        -0.4703507223E-01      0.1171620757E+00
          0                 3           1             4    7     1       0.5939376958E-04       4    7    1         0.3292455377E-02      0.8155292638E-02

    ------------------------------------------------
       NWT REQUIRED            3 OUTER ITERATIONS 
       AND A TOTAL OF          5 INNER ITERATIONS.
    ------------------------------------------------

 NO OUTPUT CONTROL FOR STRESS PERIOD   27   TIME STEP   13
 
 SOLVING FOR HEAD 
                                                   Max.-Head-Change                         Max.-Flux-Residual
  Residual-Control   Outer-Iter.   Inner-Iter.     Column Row Layer    Maximum-Head-Change  Column Row Layer    Maximum-Flux-Residual          L2-NORM 
          0                 1           2             4    7     1       0.8885996700E-02       4    7    1         0.4660052715E+00      0.1188720193E+01
          0                 2           2             4    7     1      -0.8640487107E-03       4    7    1        -0.4660063681E-01      0.1159944020E+00
          0                 3           1             4    7     1       0.5884850430E-04       4    7    1         0.3262044923E-02      0.8075613495E-02

    ------------------------------------------------
       NWT REQUIRED            3 OUTER ITERATIONS 
       AND A TOTAL OF          5 INNER ITERATIONS.
    ------------------------------------------------

 NO OUTPUT CONTROL FOR STRESS PERIOD   27   TIME STEP   14
 
 SOLVING FOR HEAD 
                                                   Max.-Head-Change                         Max.-Flux-Residual
  Residual-Control   Outer-Iter.   Inner-Iter.     Column Row Layer    Maximum-Head-Change  Column Row Layer    Maximum-Flux-Residual          L2-NORM 
          0                 1           2             4    7     1       0.8804808370E-02       4    7    1         0.4617217088E+00      0.1177344527E+01
          0                 2           2             4    7     1      -0.8561534743E-03       4    7    1        -0.4617227804E-01      0.1148855202E+00
          0                 3           1             4    7     1       0.5831079860E-04       4    7    1         0.3232059805E-02      0.7999754198E-02

    ------------------------------------------------
       NWT REQUIRED            3 OUTER ITERATIONS 
       AND A TOTAL OF          5 INNER ITERATIONS.
    ------------------------------------------------

 NO OUTPUT CONTROL FOR STRESS PERIOD   27   TIME STEP   15
 
 SOLVING FOR HEAD 
                                                   Max.-Head-Change                         Max.-Flux-Residual
  Residual-Control   Outer-Iter.   Inner-Iter.     Column Row Layer    Maximum-Head-Change  Column Row Layer    Maximum-Flux-Residual          L2-NORM 
          0                 1           2             4    7     1       0.8724878033E-02       4    7    1         0.4575046986E+00      0.1166496225E+01
          0                 2           2             4    7     1      -0.8483805901E-03       4    7    1        -0.4575057460E-01      0.1138281816E+00
          0                 3           1             4    7     1       0.5778142569E-04       4    7    1         0.3202540590E-02      0.7927283819E-02

    ------------------------------------------------
       NWT REQUIRED            3 OUTER ITERATIONS 
       AND A TOTAL OF          5 INNER ITERATIONS.
    ------------------------------------------------

 NO OUTPUT CONTROL FOR STRESS PERIOD   27   TIME STEP   16
 
 SOLVING FOR HEAD 
                                                   Max.-Head-Change                         Max.-Flux-Residual
  Residual-Control   Outer-Iter.   Inner-Iter.     Column Row Layer    Maximum-Head-Change  Column Row Layer    Maximum-Flux-Residual          L2-NORM 
          0                 1           2             4    7     1       0.8646167227E-02       4    7    1         0.4533529145E+00      0.1156119601E+01
          0                 2           2             4    7     1      -0.8407263326E-03       4    7    1        -0.4533539384E-01      0.1128170091E+00
          0                 3           1             4    7     1       0.5726013033E-04       4    7    1         0.3173477938E-02      0.7858219208E-02

    ------------------------------------------------
       NWT REQUIRED            3 OUTER ITERATIONS 
       AND A TOTAL OF          5 INNER ITERATIONS.
    ------------------------------------------------

 NO OUTPUT CONTROL FOR STRESS PERIOD   27   TIME STEP   17
 
 SOLVING FOR HEAD 
                                                   Max.-Head-Change                         Max.-Flux-Residual
  Residual-Control   Outer-Iter.   Inner-Iter.     Column Row Layer    Maximum-Head-Change  Column Row Layer    Maximum-Flux-Residual          L2-NORM 
          0                 1           2             4    7     1       0.8568644174E-02       4    7    1         0.4492643612E+00      0.1146159686E+01
          0                 2           2             4    7     1      -0.8331875933E-03       4    7    1        -0.4492653626E-01      0.1118462633E+00
          0                 3           1             4    7     1       0.5674670198E-04       4    7    1         0.3144857910E-02      0.7790950680E-02

    ------------------------------------------------
       NWT REQUIRED            3 OUTER ITERATIONS 
       AND A TOTAL OF          5 INNER ITERATIONS.
    ------------------------------------------------

 NO OUTPUT CONTROL FOR STRESS PERIOD   27   TIME STEP   18
 
 SOLVING FOR HEAD 
                                                   Max.-Head-Change                         Max.-Flux-Residual
  Residual-Control   Outer-Iter.   Inner-Iter.     Column Row Layer    Maximum-Head-Change  Column Row Layer    Maximum-Flux-Residual          L2-NORM 
          0                 1           2             4    7     1       0.8492282760E-02       4    7    1         0.4452373921E+00      0.1136572458E+01
          0                 2           2             4    7     1      -0.8257618310E-03       4    7    1        -0.4452383712E-01      0.1109118291E+00
          0                 3           1             4    7     1       0.5624096777E-04       4    7    1         0.3116668996E-02      0.7726760250E-02

    ------------------------------------------------
       NWT REQUIRED            3 OUTER ITERATIONS 
       AND A TOTAL OF          5 INNER ITERATIONS.
    ------------------------------------------------

 NO OUTPUT CONTROL FOR STRESS PERIOD   27   TIME STEP   19
 
 SOLVING FOR HEAD 
                                                   Max.-Head-Change                         Max.-Flux-Residual
  Residual-Control   Outer-Iter.   Inner-Iter.     Column Row Layer    Maximum-Head-Change  Column Row Layer    Maximum-Flux-Residual          L2-NORM 
          0                 1           2             4    7     1       0.8416924371E-02       4    7    1         0.4412632806E+00      0.1127315626E+01
          0                 2           2             4    7     1      -0.8184336260E-03       4    7    1        -0.4412642382E-01      0.1100096897E+00
          0                 3           1             4    7     1       0.5574187745E-04       4    7    1         0.3088850081E-02      0.7664371418E-02

    ------------------------------------------------
       NWT REQUIRED            3 OUTER ITERATIONS 
       AND A TOTAL OF          5 INNER ITERATIONS.
    ------------------------------------------------

 NO OUTPUT CONTROL FOR STRESS PERIOD   27   TIME STEP   20
 
 SOLVING FOR HEAD 
                                                   Max.-Head-Change                         Max.-Flux-Residual
  Residual-Control   Outer-Iter.   Inner-Iter.     Column Row Layer    Maximum-Head-Change  Column Row Layer    Maximum-Flux-Residual          L2-NORM 
          0                 1           2             4    7     1       0.8342809160E-02       4    7    1         0.4373559209E+00      0.1118349422E+01
          0                 2           2             4    7     1      -0.8112263370E-03       4    7    1        -0.4373568577E-01      0.1091361126E+00
          0                 3           1             4    7     1       0.5525102016E-04       4    7    1         0.3061498394E-02      0.7603933241E-02

    ------------------------------------------------
       NWT REQUIRED            3 OUTER ITERATIONS 
       AND A TOTAL OF          5 INNER ITERATIONS.
    ------------------------------------------------

 NO OUTPUT CONTROL FOR STRESS PERIOD   27   TIME STEP   21
 
 SOLVING FOR HEAD 
                                                   Max.-Head-Change                         Max.-Flux-Residual
  Residual-Control   Outer-Iter.   Inner-Iter.     Column Row Layer    Maximum-Head-Change  Column Row Layer    Maximum-Flux-Residual          L2-NORM 
          0                 1           2             4    7     1       0.8269637740E-02       4    7    1         0.4334982725E+00      0.1109655145E+01
          0                 2           2             4    7     1      -0.8041108423E-03       4    7    1        -0.4334991889E-01      0.1082892035E+00
          0                 3           1             4    7     1       0.5476641566E-04       4    7    1         0.3034494742E-02      0.7545474805E-02

    ------------------------------------------------
       NWT REQUIRED            3 OUTER ITERATIONS 
       AND A TOTAL OF          5 INNER ITERATIONS.
    ------------------------------------------------

 NO OUTPUT CONTROL FOR STRESS PERIOD   27   TIME STEP   22
 
 SOLVING FOR HEAD 
                                                   Max.-Head-Change                         Max.-Flux-Residual
  Residual-Control   Outer-Iter.   Inner-Iter.     Column Row Layer    Maximum-Head-Change  Column Row Layer    Maximum-Flux-Residual          L2-NORM 
          0                 1           2             4    7     1       0.8197526555E-02       4    7    1         0.4296969321E+00      0.1101197571E+01
          0                 2           2             4    7     1      -0.7970984591E-03       4    7    1        -0.4296978287E-01      0.1074654457E+00
          0                 3           1             4    7     1       0.5428883266E-04       4    7    1         0.3007885234E-02      0.7488632661E-02

    ------------------------------------------------
       NWT REQUIRED            3 OUTER ITERATIONS 
       AND A TOTAL OF          5 INNER ITERATIONS.
    ------------------------------------------------

 NO OUTPUT CONTROL FOR STRESS PERIOD   27   TIME STEP   23
 
 SOLVING FOR HEAD 
                                                   Max.-Head-Change                         Max.-Flux-Residual
  Residual-Control   Outer-Iter.   Inner-Iter.     Column Row Layer    Maximum-Head-Change  Column Row Layer    Maximum-Flux-Residual          L2-NORM 
          0                 1           2             4    7     1       0.8126449955E-02       4    7    1         0.4259505644E+00      0.1092959271E+01
          0                 2           2             4    7     1      -0.7901866925E-03       4    7    1        -0.4259514420E-01      0.1066628363E+00
          0                 3           1             4    7     1       0.5381810171E-04       4    7    1         0.2981660520E-02      0.7432994113E-02

    ------------------------------------------------
       NWT REQUIRED            3 OUTER ITERATIONS 
       AND A TOTAL OF          5 INNER ITERATIONS.
    ------------------------------------------------

 NO OUTPUT CONTROL FOR STRESS PERIOD   27   TIME STEP   24
 
 SOLVING FOR HEAD 
                                                   Max.-Head-Change                         Max.-Flux-Residual
  Residual-Control   Outer-Iter.   Inner-Iter.     Column Row Layer    Maximum-Head-Change  Column Row Layer    Maximum-Flux-Residual          L2-NORM 
          0                 1           2             4    7     1       0.8056382457E-02       4    7    1         0.4222578396E+00      0.1084916051E+01
          0                 2           2             4    7     1      -0.7833730811E-03       4    7    1        -0.4222586985E-01      0.1058797857E+00
          0                 3           1             4    7     1       0.5335405525E-04       4    7    1         0.2955811345E-02      0.7378747865E-02

    ------------------------------------------------
       NWT REQUIRED            3 OUTER ITERATIONS 
       AND A TOTAL OF          5 INNER ITERATIONS.
    ------------------------------------------------

 NO OUTPUT CONTROL FOR STRESS PERIOD   27   TIME STEP   25
 
 SOLVING FOR HEAD 
                                                   Max.-Head-Change                         Max.-Flux-Residual
  Residual-Control   Outer-Iter.   Inner-Iter.     Column Row Layer    Maximum-Head-Change  Column Row Layer    Maximum-Flux-Residual          L2-NORM 
          0                 1           2             4    7     1       0.7987306577E-02       4    7    1         0.4186174355E+00      0.1077071306E+01
          0                 2           2             4    7     1      -0.7766558968E-03       4    7    1        -0.4186182762E-01      0.1051157807E+00
          0                 3           1             4    7     1       0.5289657575E-04       4    7    1         0.2930328372E-02      0.7325733406E-02

    ------------------------------------------------
       NWT REQUIRED            3 OUTER ITERATIONS 
       AND A TOTAL OF          5 INNER ITERATIONS.
    ------------------------------------------------

 NO OUTPUT CONTROL FOR STRESS PERIOD   27   TIME STEP   26
 
 SOLVING FOR HEAD 
                                                   Max.-Head-Change                         Max.-Flux-Residual
  Residual-Control   Outer-Iter.   Inner-Iter.     Column Row Layer    Maximum-Head-Change  Column Row Layer    Maximum-Flux-Residual          L2-NORM 
          0                 1           2             4    7     1       0.7919192815E-02       4    7    1         0.4150284470E+00      0.1069388135E+01
          0                 2           2             4    7     1      -0.7700322975E-03       4    7    1        -0.4150292702E-01      0.1043680170E+00
          0                 3           1             4    7     1       0.5244546940E-04       4    7    1         0.2905205355E-02      0.7273785999E-02

    ------------------------------------------------
       NWT REQUIRED            3 OUTER ITERATIONS 
       AND A TOTAL OF          5 INNER ITERATIONS.
    ------------------------------------------------

 NO OUTPUT CONTROL FOR STRESS PERIOD   27   TIME STEP   27
 
 SOLVING FOR HEAD 
                                                   Max.-Head-Change                         Max.-Flux-Residual
  Residual-Control   Outer-Iter.   Inner-Iter.     Column Row Layer    Maximum-Head-Change  Column Row Layer    Maximum-Flux-Residual          L2-NORM 
          0                 1           2             4    7     1       0.7852019198E-02       4    7    1         0.4114893430E+00      0.1061860638E+01
          0                 2           2             4    7     1      -0.7635001266E-03       4    7    1        -0.4114901489E-01      0.1036353967E+00
          0                 3           1             4    7     1       0.5200058956E-04       4    7    1         0.2880431493E-02      0.7223033337E-02

    ------------------------------------------------
       NWT REQUIRED            3 OUTER ITERATIONS 
       AND A TOTAL OF          5 INNER ITERATIONS.
    ------------------------------------------------

 NO OUTPUT CONTROL FOR STRESS PERIOD   27   TIME STEP   28
 
 SOLVING FOR HEAD 
                                                   Max.-Head-Change                         Max.-Flux-Residual
  Residual-Control   Outer-Iter.   Inner-Iter.     Column Row Layer    Maximum-Head-Change  Column Row Layer    Maximum-Flux-Residual          L2-NORM 
          0                 1           2             4    7     1       0.7785767502E-02       4    7    1         0.4079989853E+00      0.1054486709E+01
          0                 2           2             4    7     1      -0.7570576126E-03       4    7    1        -0.4079997745E-01      0.1029176587E+00
          0                 3           1             4    7     1       0.5156181566E-04       4    7    1         0.2855998880E-02      0.7173180815E-02

    ------------------------------------------------
       NWT REQUIRED            3 OUTER ITERATIONS 
       AND A TOTAL OF          5 INNER ITERATIONS.
    ------------------------------------------------

 NO OUTPUT CONTROL FOR STRESS PERIOD   27   TIME STEP   29
 
 SOLVING FOR HEAD 
                                                   Max.-Head-Change                         Max.-Flux-Residual
  Residual-Control   Outer-Iter.   Inner-Iter.     Column Row Layer    Maximum-Head-Change  Column Row Layer    Maximum-Flux-Residual          L2-NORM 
          0                 1           2             4    7     1       0.7720417641E-02       4    7    1         0.4045564292E+00      0.1047246295E+01
          0                 2           2             4    7     1      -0.7507028102E-03       4    7    1        -0.4045572021E-01      0.1022131102E+00
          0                 3           1             4    7     1       0.5112901527E-04       4    7    1         0.2831900892E-02      0.7124199897E-02

    ------------------------------------------------
       NWT REQUIRED            3 OUTER ITERATIONS 
       AND A TOTAL OF          5 INNER ITERATIONS.
    ------------------------------------------------

 NO OUTPUT CONTROL FOR STRESS PERIOD   27   TIME STEP   30



 STREAM LISTING     PERIOD     27   STEP       30

 LAYER ROW COL. STREAM  RCH.  FLOW INTO     FLOW TO   FLOW OUT OF   OVRLND.     DIRECT     STREAM       STREAM     STREAM     STREAM   STREAMBED  STREAMBED
                SEG.NO.  NO.  STRM. RCH.    AQUIFER    STRM. RCH.    RUNOFF     PRECIP       ET          HEAD       DEPTH      WIDTH   CONDCTNC.   GRADIENT

   1    1    1     1     1    3.1499E+01  2.7310E-01   3.1226E+01  0.000E+00  0.000E+00  0.000E+00  1.09431E+03  1.262E+00  1.424E+01  6.407E-02  1.421E+00
   1    2    2     1     2    3.1226E+01  4.2272E-01   3.0803E+01  0.000E+00  0.000E+00  0.000E+00  1.08932E+03  1.259E+00  1.418E+01  9.925E-02  1.420E+00
   1    3    3     1     3    3.0803E+01  3.6028E-01   3.0443E+01  0.000E+00  0.000E+00  0.000E+00  1.08367E+03  1.256E+00  1.411E+01  8.466E-02  1.419E+00
   1    3    4     1     4    3.0443E+01  3.3158E-01   3.0111E+01  0.000E+00  0.000E+00  0.000E+00  1.07866E+03  1.253E+00  1.405E+01  7.797E-02  1.418E+00
   1    4    5     2     1    2.8111E+01  3.3470E-01   2.7777E+01  0.000E+00  0.000E+00  0.000E+00  1.07322E+03  1.291E+00  1.200E+01  7.800E-02  1.430E+00
   1    5    6     2     2    2.7777E+01  2.5697E-01   2.7520E+01  0.000E+00  0.000E+00  0.000E+00  1.06779E+03  1.283E+00  1.200E+01  6.000E-02  1.428E+00
   1    6    6     2     3    2.7520E+01  2.5654E-01   2.7263E+01  0.000E+00  0.000E+00  0.000E+00  1.06307E+03  1.276E+00  1.200E+01  6.000E-02  1.425E+00
   1    7    6     2     4    2.7263E+01  2.5611E-01   2.7007E+01  0.000E+00  0.000E+00  0.000E+00  1.05834E+03  1.268E+00  1.200E+01  6.000E-02  1.423E+00
   1    8    6     2     5    2.7007E+01  2.5567E-01   2.6751E+01  0.000E+00  0.000E+00  0.000E+00  1.05362E+03  1.261E+00  1.200E+01  6.000E-02  1.420E+00
   1    3    5     3     1    2.0000E+00  2.8252E-01   1.7175E+00  0.000E+00  0.000E+00  0.000E+00  1.07555E+03  1.909E+00  9.636E+00  7.227E-02  1.955E+00
   1    3    6     3     2    1.7175E+00  2.4905E-01   1.4684E+00  0.000E+00  0.000E+00  0.000E+00  1.07264E+03  1.727E+00  8.909E+00  6.682E-02  1.864E+00
   1    3    7     3     3    1.4684E+00  1.9718E-01   1.2712E+00  0.000E+00  0.000E+00  0.000E+00  1.06987E+03  1.555E+00  8.218E+00  5.547E-02  1.777E+00
   1    4    8     3     4    1.2712E+00  2.2567E-01   1.0456E+00  0.000E+00  0.000E+00  0.000E+00  1.06682E+03  1.364E+00  7.455E+00  6.709E-02  1.682E+00
   1    5    8     3     5    1.0456E+00  1.5790E-01   8.8768E-01  0.000E+00  0.000E+00  0.000E+00  1.06362E+03  1.164E+00  6.655E+00  4.991E-02  1.582E+00
   1    6    8     3     6    8.8768E-01  5.5980E-02   8.3170E-01  0.000E+00  0.000E+00  0.000E+00  1.06158E+03  1.036E+00  6.145E+00  1.844E-02  1.518E+00
   1    5   10     4     1    1.0000E+01  9.0919E-02   9.9091E+00  0.000E+00  0.000E+00  0.000E+00  1.07836E+03  6.368E-01  1.000E+01  2.500E-02  1.212E+00
   1    5    9     4     2    9.9091E+00  1.8158E-01   9.7275E+00  0.000E+00  0.000E+00  0.000E+00  1.07154E+03  6.315E-01  1.000E+01  5.000E-02  1.211E+00
   1    6    8     4     3    9.7275E+00  1.2689E-01   9.6006E+00  0.000E+00  0.000E+00  0.000E+00  1.06381E+03  6.256E-01  1.000E+01  3.500E-02  1.209E+00
   1    6    8     5     1    1.0432E+01  2.2686E-01   1.0205E+01  0.000E+00  0.000E+00  0.000E+00  1.05868E+03  6.790E-01  1.542E+01  6.166E-02  1.226E+00
   1    7    7     5     2    1.0205E+01  2.7894E-01   9.9265E+00  0.000E+00  0.000E+00  0.000E+00  1.05417E+03  6.732E-01  1.519E+01  7.594E-02  1.224E+00
   1    8    7     5     3    9.9265E+00  1.9221E-01   9.7343E+00  0.000E+00  0.000E+00  0.000E+00  1.04992E+03  6.676E-01  1.497E+01  5.241E-02  1.223E+00
   1    8    6     5     4    9.7343E+00  1.3577E-01   9.5985E+00  0.000E+00  0.000E+00  0.000E+00  1.04691E+03  6.637E-01  1.482E+01  3.706E-02  1.221E+00
   1    9    6     6     1    3.6350E+01  2.7151E-01   3.6078E+01  0.000E+00  0.000E+00  0.000E+00  1.04425E+03  1.525E+00  1.200E+01  6.000E-02  1.508E+00
   1   10    7     6     2    3.6078E+01  2.7109E-01   3.5807E+01  0.000E+00  0.000E+00  0.000E+00  1.03970E+03  1.518E+00  1.200E+01  6.000E-02  1.506E+00
   1   11    7     6     3    3.5807E+01  2.7068E-01   3.5537E+01  0.000E+00  0.000E+00  0.000E+00  1.03515E+03  1.511E+00  1.200E+01  6.000E-02  1.504E+00
   1   12    7     6     4    3.5537E+01  2.7027E-01   3.5266E+01  0.000E+00  0.000E+00  0.000E+00  1.03060E+03  1.504E+00  1.200E+01  6.000E-02  1.501E+00
   1   13    7     6     5    3.5266E+01  9.6080E-03   3.5257E+01  0.000E+00  0.000E+00  0.000E+00  1.02741E+03  1.501E+00  1.200E+01  2.400E-02  1.334E-01
   1   14    9     7     1    1.5000E+02  1.3412E+00   1.4866E+02  0.000E+00  0.000E+00  0.000E+00  1.03987E+03  2.288E+00  5.529E+01  5.593E-01  7.993E-01
   1   13    8     7     2    1.4866E+02  1.8524E+00   1.4681E+02  0.000E+00  0.000E+00  0.000E+00  1.03478E+03  2.279E+00  5.526E+01  6.148E-01  1.004E+00
   1   13    7     7     3    1.4681E+02  1.4966E+00   1.4531E+02  0.000E+00  0.000E+00  0.000E+00  1.02969E+03  2.270E+00  5.522E+01  5.584E-01  8.933E-01
   1   13    6     8     1    1.8057E+02  9.9521E-01   1.7957E+02  0.000E+00  0.000E+00  0.000E+00  1.02489E+03  3.017E+00  4.374E+01  4.457E-01  7.443E-01
   1   13    5     8     2    1.7957E+02  2.2910E-01   1.7934E+02  0.000E+00  0.000E+00  0.000E+00  1.01864E+03  3.013E+00  4.368E+01  4.452E-01  1.715E-01
   1   13    4     8     3    1.7934E+02 -2.2811E+00   1.8162E+02  0.000E+00  0.000E+00  0.000E+00  1.01239E+03  3.019E+00  4.378E+01  4.461E+00 -1.704E-01
   1   13    3     8     4    1.8162E+02 -3.5587E+00   1.8518E+02  0.000E+00  0.000E+00  0.000E+00  1.00616E+03  3.037E+00  4.404E+01  4.488E+00 -2.643E-01
   1   13    2     8     5    1.8518E+02 -2.5146E+00   1.8770E+02  0.000E+00  0.000E+00  0.000E+00  9.99931E+02  3.056E+00  4.431E+01  4.516E+00 -1.856E-01
   1   13    1     8     6    1.8770E+02 -1.9271E+00   1.8962E+02  0.000E+00  0.000E+00  0.000E+00  9.94945E+02  3.070E+00  4.451E+01  2.722E+00 -2.360E-01
   1    8    6     9     1    0.0000E+00  0.0000E+00   0.0000E+00  0.000E+00  0.000E+00  0.000E+00  1.07875E+03  0.000E+00  4.000E+00  0.000E+00  1.000E+00
   1    8    5     9     2    0.0000E+00  0.0000E+00   0.0000E+00  0.000E+00  0.000E+00  0.000E+00  1.07825E+03  0.000E+00  4.000E+00  0.000E+00  1.000E+00





UNSATURATED ZONE PACKAGE VOLUMETRIC BUDGET FOR  TIME STEP    30 STRESS PERIOD   27
  ------------------------------------------------------------------------------



     CUMULATIVE VOLUMES      L**3       RATES FOR THIS TIME STEP      L**3/T
     ------------------                 ------------------------

           IN:                                      IN:
           ---                                      ---
        INFILTRATION =  1041150790.0150          INFILTRATION =           0.8475

          OUT:                                     OUT:
          ----                                     ----
              UZF ET =   865284664.9051                UZF ET =           0.7500
        UZF RECHARGE =     2650072.1426          UZF RECHARGE =           0.0368

            IN - OUT =   173216052.9672              IN - OUT =       6.0741E-02

          STORAGE:                                 STORAGE:
          --------                                 --------
      STORAGE CHANGE =   173216519.4657        STORAGE CHANGE =       6.0741E-02

 PERCENT DISCREPANCY IS DIFFERENCE BETWEEN IN-OUT MINUS CHANGE IN STORAGE
 DIVIDED BY THE AVERAGE OF IN AND OUT TIMES 100

 PERCENT DISCREPANCY =          -0.00     PERCENT DISCREPANCY =           0.00






1
  VOLUMETRIC BUDGET FOR AGRICULTURAL FIELDS AT  END OF TIME STEP   30, STRESS PERIOD  27
  ------------------------------------------------------------------------------

     CUMULATIVE VOLUMES      L**3       RATES FOR THIS TIME STEP      L**3/T
     ------------------                 ------------------------

           IN:                                      IN:
           ---                                      ---
               AG WELLS  =   391007552.0000                 AG WELLS  =           0.0000
      DIVERSION SEGMENTS =   592111808.0000        DIVERSION SEGMENTS =           0.0000
           GW IRRIGATION =           0.0000             GW IRRIGATION =           0.0000
           SW IRRIGATION =           0.0000             SW IRRIGATION =           0.0000
        SYSTEM LOSSES GW =           0.0000          SYSTEM LOSSES GW =           0.0000
        SYSTEM LOSSES SW =           0.0000          SYSTEM LOSSES SW =           0.0000

                TOTAL IN =   983119360.0000                  TOTAL IN =           0.0000

          OUT:                                     OUT:
          ----                                     ----
               AG WELLS  =           0.0000                 AG WELLS  =           0.0000
      DIVERSION SEGMENTS =           0.0000        DIVERSION SEGMENTS =           0.0000
           GW IRRIGATION =   391007552.0000             GW IRRIGATION =           0.0000
           SW IRRIGATION =   592123584.0000             SW IRRIGATION =           0.0000
        SYSTEM LOSSES GW =           0.0000          SYSTEM LOSSES GW =           0.0000
        SYSTEM LOSSES SW =           0.0000          SYSTEM LOSSES SW =           0.0000

               TOTAL OUT =   983131136.0000                 TOTAL OUT =           0.0000

                IN - OUT =      -11776.0000                  IN - OUT =           0.0000

     PERCENT DISCREPANCY =          -0.00         PERCENT DISCREPANCY =           0.00



1
  VOLUMETRIC BUDGET FOR ENTIRE MODEL AT END OF TIME STEP   30, STRESS PERIOD  27
  ------------------------------------------------------------------------------

     CUMULATIVE VOLUMES      L**3       RATES FOR THIS TIME STEP      L**3/T
     ------------------                 ------------------------

           IN:                                      IN:
           ---                                      ---
             STORAGE     =   644769024.0000               STORAGE     =           2.5263
       CONSTANT HEAD     =           0.0000         CONSTANT HEAD     =           0.0000
     HEAD DEP BOUNDS     =    19568934.0000       HEAD DEP BOUNDS     =           0.2861
      STREAM LEAKAGE     =   813454016.0000        STREAM LEAKAGE     =          12.1568
        UZF RECHARGE     =     2650072.5000          UZF RECHARGE     =       3.6759E-02
               GW ET     =           0.0000                 GW ET     =           0.0000
     SURFACE LEAKAGE     =           0.0000       SURFACE LEAKAGE     =           0.0000
           AG WELLS      =           0.0000             AG WELLS      =           0.0000

                TOTAL IN =  1480442112.0000                  TOTAL IN =          15.0060

          OUT:                                     OUT:
          ----                                     ----
             STORAGE     =   330507072.0000               STORAGE     =           4.4341
       CONSTANT HEAD     =           0.0000         CONSTANT HEAD     =           0.0000
     HEAD DEP BOUNDS     =    19891396.0000       HEAD DEP BOUNDS     =           0.2908
      STREAM LEAKAGE     =   736903808.0000        STREAM LEAKAGE     =          10.2815
        UZF RECHARGE     =           0.0000          UZF RECHARGE     =           0.0000
               GW ET     =     2141481.7500                 GW ET     =           0.0000
     SURFACE LEAKAGE     =           0.0000       SURFACE LEAKAGE     =           0.0000
           AG WELLS      =   391007552.0000             AG WELLS      =           0.0000

               TOTAL OUT =  1480451328.0000                 TOTAL OUT =          15.0064

                IN - OUT =       -9216.0000                  IN - OUT =      -4.4727E-04

     PERCENT DISCREPANCY =          -0.00         PERCENT DISCREPANCY =          -0.00






         TIME SUMMARY AT END OF TIME STEP   30 IN STRESS PERIOD   27
                    SECONDS     MINUTES      HOURS       DAYS        YEARS
                    -----------------------------------------------------------
   TIME STEP LENGTH  87667.      1461.1      24.352      1.0147     2.77799E-03
 STRESS PERIOD TIME 2.63000E+06  43833.      730.56      30.440     8.33397E-02
         TOTAL TIME 6.84668E+07 1.14111E+06  19019.      792.44      2.1696    
1
1
                            STRESS PERIOD NO.   28, LENGTH =   2630000.    
                            -----------------------------------------------

                              NUMBER OF TIME STEPS =    30

                               MULTIPLIER FOR DELT =     1.000

                            INITIAL TIME STEP SIZE =   87666.66    

 REUSING NON-PARAMETER GHB CELLS FROM LAST STRESS PERIOD

      2 GHB CELLS

 REUSING STREAM SEGMENT DATA FROM LAST STRESS PERIOD



            AREAL INFILTRATION RATE
 READING ON UNIT   19 WITH FORMAT: (FREE)              

            1           2           3           4           5           6           7           8           9          10
 ........................................................................................................................
   1   1.0000E-10  2.0000E-10   0.000       0.000       0.000       0.000       0.000       0.000       0.000       0.000    
   2   2.0000E-10  1.0000E-10  2.0000E-10   0.000       0.000      8.0000E-10  8.0000E-10  5.0000E-10   0.000       0.000    
   3    0.000      5.0000E-10  1.0000E-10  1.0000E-10  8.0000E-10  8.0000E-10  5.0000E-10  5.0000E-10   0.000       0.000    
   4   8.0000E-10  5.0000E-10  1.0000E-10  1.0000E-10  1.0000E-10  1.0000E-10  1.0000E-10  1.0000E-10  2.0000E-10   0.000    
   5   8.0000E-10  5.0000E-10  1.0000E-10  1.0000E-10  1.0000E-10  1.0000E-10  1.0000E-10  1.0000E-10  1.0000E-10  1.0000E-10
   6   8.0000E-10  5.0000E-10  5.0000E-10  2.0000E-10  2.0000E-10  1.0000E-10  1.0000E-10  1.0000E-10  1.0000E-10  5.0000E-10
   7   8.0000E-10  5.0000E-10  5.0000E-10  2.0000E-10  2.0000E-10  1.0000E-10  1.0000E-10  2.0000E-10  2.0000E-10   0.000    
   8    0.000      5.0000E-10  5.0000E-10  2.0000E-10  2.0000E-10  1.0000E-10  1.0000E-10  2.0000E-10  5.0000E-10   0.000    
   9    0.000      5.0000E-10  5.0000E-10  2.0000E-10  2.0000E-10  1.0000E-10  1.0000E-10  2.0000E-10  5.0000E-10   0.000    
  10    0.000      5.0000E-10  5.0000E-10  2.0000E-10  2.0000E-10  1.0000E-10  1.0000E-10  2.0000E-10  5.0000E-10  8.0000E-10
  11    0.000      1.0000E-10  1.0000E-10  1.0000E-10  1.0000E-10  1.0000E-10  1.0000E-10  2.0000E-10  5.0000E-10   0.000    
  12   1.0000E-10  1.0000E-10  1.0000E-10  1.0000E-10  1.0000E-10  1.0000E-10  1.0000E-10  1.0000E-10  2.0000E-10   0.000    
  13   1.0000E-10  1.0000E-10  2.0000E-10  2.0000E-10  2.0000E-10  2.0000E-10  2.0000E-10  1.0000E-10  1.0000E-10   0.000    
  14    0.000      2.0000E-10  5.0000E-10  5.0000E-10  5.0000E-10  5.0000E-10  5.0000E-10  2.0000E-10  1.0000E-10   0.000    
  15    0.000       0.000      8.0000E-10  8.0000E-10  8.0000E-10  8.0000E-10   0.000       0.000       0.000       0.000    

                  ET RATE =  5.000000E-10

 USING ET EXTINCTION DEPTH FROM PREVIOUS STRESS PERIOD. CURRENT PERIOD IS:      28

 USING EXTINCTION WATER CONTENT FROM PREVIOUS STRESS PERIOD. CURRENT PERIOD IS:      28

 USING AIR ENTRY PRESSURE FROM PREVIOUS STRESS PERIOD. CURRENT PERIOD IS:      28

 USING ROOT PRESSURE HEAD FROM PREVIOUS STRESS PERIOD. CURRENT PERIOD IS:      28

 USING ROOT ACTIVITY FROM PREVIOUS STRESS PERIOD. CURRENT PERIOD IS:      28

 PROCESSING AG STRESS PERIOD DATA

 READING AG STRESS PERIOD DATA

 READING IRRIGATION SEGMENT

 READING IRRIGATION WELL

 READING SUPPLEMENTAL WELL

 END PROCESSING AG STRESS PERIOD DATA OPTIONS
 
 SOLVING FOR HEAD 
                                                   Max.-Head-Change                         Max.-Flux-Residual
  Residual-Control   Outer-Iter.   Inner-Iter.     Column Row Layer    Maximum-Head-Change  Column Row Layer    Maximum-Flux-Residual          L2-NORM 
          0                 1           2             4    7     1       0.7656053820E-02       4    7    1         0.4011606326E+00      0.1270979388E+01
          0                 2           2             4    7     1      -0.7444435196E-03       4    7    1        -0.4011613891E-01      0.1239779326E+00
          0                 3           1             4    7     1       0.5070272990E-04       4    7    1         0.2808130198E-02      0.8550458878E-02

    ------------------------------------------------
       NWT REQUIRED            3 OUTER ITERATIONS 
       AND A TOTAL OF          5 INNER ITERATIONS.
    ------------------------------------------------

 NO OUTPUT CONTROL FOR STRESS PERIOD   28   TIME STEP    1
 
 SOLVING FOR HEAD 
                                                   Max.-Head-Change                         Max.-Flux-Residual
  Residual-Control   Outer-Iter.   Inner-Iter.     Column Row Layer    Maximum-Head-Change  Column Row Layer    Maximum-Flux-Residual          L2-NORM 
          0                 1           2             4   13     1       0.9936341464E-02       4   13    1         0.5720797070E+00      0.1494667462E+01
          0                 2           2             4   13     1      -0.9563691482E-03       4   13    1        -0.5661460886E-01      0.1456604688E+00
          0                 3           1             4   13     1       0.6418523618E-04       4   13    1         0.3906611855E-02      0.9981211816E-02

    ------------------------------------------------
       NWT REQUIRED            3 OUTER ITERATIONS 
       AND A TOTAL OF          5 INNER ITERATIONS.
    ------------------------------------------------

 NO OUTPUT CONTROL FOR STRESS PERIOD   28   TIME STEP    2
 
 SOLVING FOR HEAD 
                                                   Max.-Head-Change                         Max.-Flux-Residual
  Residual-Control   Outer-Iter.   Inner-Iter.     Column Row Layer    Maximum-Head-Change  Column Row Layer    Maximum-Flux-Residual          L2-NORM 
          0                 1           2             2   13     1       0.9088332927E-02       4   13    1         0.5164813377E+00      0.1435263253E+01
          0                 2           2             4   13     1      -0.8638581286E-03       4   13    1        -0.5110874449E-01      0.1399191281E+00
          0                 3           1             4   13     1       0.5795960245E-04       4   13    1         0.3525621685E-02      0.9601641368E-02

    ------------------------------------------------
       NWT REQUIRED            3 OUTER ITERATIONS 
       AND A TOTAL OF          5 INNER ITERATIONS.
    ------------------------------------------------

 NO OUTPUT CONTROL FOR STRESS PERIOD   28   TIME STEP    3
 
 SOLVING FOR HEAD 
                                                   Max.-Head-Change                         Max.-Flux-Residual
  Residual-Control   Outer-Iter.   Inner-Iter.     Column Row Layer    Maximum-Head-Change  Column Row Layer    Maximum-Flux-Residual          L2-NORM 
          0                 1           2             2   13     1       0.8384635203E-02       2   13    1         0.4736285813E+00      0.1382729511E+01
          0                 2           2             4   13     1      -0.7807656789E-03       4   13    1        -0.4616508711E-01      0.1348441637E+00
          0                 3           1             4   13     1       0.5238169175E-04       4   13    1         0.3184397680E-02      0.9266764959E-02

    ------------------------------------------------
       NWT REQUIRED            3 OUTER ITERATIONS 
       AND A TOTAL OF          5 INNER ITERATIONS.
    ------------------------------------------------

 NO OUTPUT CONTROL FOR STRESS PERIOD   28   TIME STEP    4
 
 SOLVING FOR HEAD 
                                                   Max.-Head-Change                         Max.-Flux-Residual
  Residual-Control   Outer-Iter.   Inner-Iter.     Column Row Layer    Maximum-Head-Change  Column Row Layer    Maximum-Flux-Residual          L2-NORM 
          0                 1           2             2   13     1       0.7735888533E-02       2   13    1         0.4369332639E+00      0.1336254209E+01
          0                 2           2             4    7     1      -0.7203793025E-03       2   13    1        -0.4173527608E-01      0.1303543945E+00
          0                 3           1             4    7     1       0.4906386962E-04       4   13    1         0.2876717926E-02      0.8970443518E-02

    ------------------------------------------------
       NWT REQUIRED            3 OUTER ITERATIONS 
       AND A TOTAL OF          5 INNER ITERATIONS.
    ------------------------------------------------

 NO OUTPUT CONTROL FOR STRESS PERIOD   28   TIME STEP    5
 
 SOLVING FOR HEAD 
                                                   Max.-Head-Change                         Max.-Flux-Residual
  Residual-Control   Outer-Iter.   Inner-Iter.     Column Row Layer    Maximum-Head-Change  Column Row Layer    Maximum-Flux-Residual          L2-NORM 
          0                 1           2             4    7     1       0.7349177708E-02       2   13    1         0.4031110740E+00      0.1295109596E+01
          0                 2           2             4    7     1      -0.7145997817E-03       2   13    1        -0.3852260074E-01      0.1263789782E+00
          0                 3           1             4    7     1       0.4867026067E-04       4    7    1         0.2694751739E-02      0.8708170017E-02

    ------------------------------------------------
       NWT REQUIRED            3 OUTER ITERATIONS 
       AND A TOTAL OF          5 INNER ITERATIONS.
    ------------------------------------------------

 NO OUTPUT CONTROL FOR STRESS PERIOD   28   TIME STEP    6
 
 SOLVING FOR HEAD 
                                                   Max.-Head-Change                         Max.-Flux-Residual
  Residual-Control   Outer-Iter.   Inner-Iter.     Column Row Layer    Maximum-Head-Change  Column Row Layer    Maximum-Flux-Residual          L2-NORM 
          0                 1           2             4    7     1       0.7290484740E-02       4    7    1         0.3818675658E+00      0.1258628803E+01
          0                 2           2             4    7     1      -0.7088919883E-03       4    7    1        -0.3818682313E-01      0.1228603280E+00
          0                 3           1             4    7     1       0.4828153582E-04       4    7    1         0.2673078131E-02      0.8476655962E-02

    ------------------------------------------------
       NWT REQUIRED            3 OUTER ITERATIONS 
       AND A TOTAL OF          5 INNER ITERATIONS.
    ------------------------------------------------

 NO OUTPUT CONTROL FOR STRESS PERIOD   28   TIME STEP    7
 
 SOLVING FOR HEAD 
                                                   Max.-Head-Change                         Max.-Flux-Residual
  Residual-Control   Outer-Iter.   Inner-Iter.     Column Row Layer    Maximum-Head-Change  Column Row Layer    Maximum-Flux-Residual          L2-NORM 
          0                 1           2             4    7     1       0.7232784222E-02       4    7    1         0.3788243257E+00      0.1226236144E+01
          0                 2           2             4    7     1      -0.7032807485E-03       4    7    1        -0.3788249775E-01      0.1197485639E+00
          0                 3           1             4    7     1       0.4789938529E-04       4    7    1         0.2651775355E-02      0.8270948845E-02

    ------------------------------------------------
       NWT REQUIRED            3 OUTER ITERATIONS 
       AND A TOTAL OF          5 INNER ITERATIONS.
    ------------------------------------------------

 NO OUTPUT CONTROL FOR STRESS PERIOD   28   TIME STEP    8
 
 SOLVING FOR HEAD 
                                                   Max.-Head-Change                         Max.-Flux-Residual
  Residual-Control   Outer-Iter.   Inner-Iter.     Column Row Layer    Maximum-Head-Change  Column Row Layer    Maximum-Flux-Residual          L2-NORM 
          0                 1           2             4    7     1       0.7175768610E-02       4    7    1         0.3758177915E+00      0.1197370963E+01
          0                 2           2             4    7     1      -0.6977361373E-03       4    7    1        -0.3758184299E-01      0.1169346311E+00
          0                 3           1             4    7     1       0.4752177202E-04       4    7    1         0.2630729534E-02      0.8085646986E-02

    ------------------------------------------------
       NWT REQUIRED            3 OUTER ITERATIONS 
       AND A TOTAL OF          5 INNER ITERATIONS.
    ------------------------------------------------

 NO OUTPUT CONTROL FOR STRESS PERIOD   28   TIME STEP    9
 
 SOLVING FOR HEAD 
                                                   Max.-Head-Change                         Max.-Flux-Residual
  Residual-Control   Outer-Iter.   Inner-Iter.     Column Row Layer    Maximum-Head-Change  Column Row Layer    Maximum-Flux-Residual          L2-NORM 
          0                 1           2             4    7     1       0.7119702272E-02       4    7    1         0.3728615188E+00      0.1171623623E+01
          0                 2           2             4    7     1      -0.6922838686E-03       4    7    1        -0.3728621444E-01      0.1144455324E+00
          0                 3           1             4    7     1       0.4715044645E-04       4    7    1         0.2610035530E-02      0.7921129973E-02

    ------------------------------------------------
       NWT REQUIRED            3 OUTER ITERATIONS 
       AND A TOTAL OF          5 INNER ITERATIONS.
    ------------------------------------------------

 NO OUTPUT CONTROL FOR STRESS PERIOD   28   TIME STEP   10
 
 SOLVING FOR HEAD 
                                                   Max.-Head-Change                         Max.-Flux-Residual
  Residual-Control   Outer-Iter.   Inner-Iter.     Column Row Layer    Maximum-Head-Change  Column Row Layer    Maximum-Flux-Residual          L2-NORM 
          0                 1           2             4    7     1       0.7064417931E-02       4    7    1         0.3699470891E+00      0.1148582167E+01
          0                 2           2             4    7     1      -0.6869076779E-03       4    7    1        -0.3699477021E-01      0.1122174514E+00
          0                 3           1             4    7     1       0.4678430095E-04       4    7    1         0.2589634432E-02      0.7773277138E-02

    ------------------------------------------------
       NWT REQUIRED            3 OUTER ITERATIONS 
       AND A TOTAL OF          5 INNER ITERATIONS.
    ------------------------------------------------

 NO OUTPUT CONTROL FOR STRESS PERIOD   28   TIME STEP   11
 
 SOLVING FOR HEAD 
                                                   Max.-Head-Change                         Max.-Flux-Residual
  Residual-Control   Outer-Iter.   Inner-Iter.     Column Row Layer    Maximum-Head-Change  Column Row Layer    Maximum-Flux-Residual          L2-NORM 
          0                 1           2             4    7     1       0.7010029958E-02       4    7    1         0.3670805797E+00      0.1127895048E+01
          0                 2           2             4    7     1      -0.6816186811E-03       4    7    1        -0.3670811807E-01      0.1102159336E+00
          0                 3           1             4    7     1       0.4642409346E-04       4    7    1         0.2569568784E-02      0.7640697110E-02

    ------------------------------------------------
       NWT REQUIRED            3 OUTER ITERATIONS 
       AND A TOTAL OF          5 INNER ITERATIONS.
    ------------------------------------------------

 NO OUTPUT CONTROL FOR STRESS PERIOD   28   TIME STEP   12
 
 SOLVING FOR HEAD 
                                                   Max.-Head-Change                         Max.-Flux-Residual
  Residual-Control   Outer-Iter.   Inner-Iter.     Column Row Layer    Maximum-Head-Change  Column Row Layer    Maximum-Flux-Residual          L2-NORM 
          0                 1           2             4    7     1       0.6956244636E-02       4    7    1         0.3642457943E+00      0.1109244294E+01
          0                 2           2             4    7     1      -0.6763883139E-03       4    7    1        -0.3642463834E-01      0.1084104783E+00
          0                 3           1             4    7     1       0.4606787817E-04       4    7    1         0.2549725205E-02      0.7520489175E-02

    ------------------------------------------------
       NWT REQUIRED            3 OUTER ITERATIONS 
       AND A TOTAL OF          5 INNER ITERATIONS.
    ------------------------------------------------

 NO OUTPUT CONTROL FOR STRESS PERIOD   28   TIME STEP   13
 
 SOLVING FOR HEAD 
                                                   Max.-Head-Change                         Max.-Flux-Residual
  Residual-Control   Outer-Iter.   Inner-Iter.     Column Row Layer    Maximum-Head-Change  Column Row Layer    Maximum-Flux-Residual          L2-NORM 
          0                 1           2             4    7     1       0.6903316695E-02       4    7    1         0.3614570065E+00      0.1092378736E+01
          0                 2           2             4    7     1      -0.6712413455E-03       4    7    1        -0.3614575843E-01      0.1067781199E+00
          0                 3           1             4    7     1       0.4571734186E-04       4    7    1         0.2530203609E-02      0.7412765912E-02

    ------------------------------------------------
       NWT REQUIRED            3 OUTER ITERATIONS 
       AND A TOTAL OF          5 INNER ITERATIONS.
    ------------------------------------------------

 NO OUTPUT CONTROL FOR STRESS PERIOD   28   TIME STEP   14
 
 SOLVING FOR HEAD 
                                                   Max.-Head-Change                         Max.-Flux-Residual
  Residual-Control   Outer-Iter.   Inner-Iter.     Column Row Layer    Maximum-Head-Change  Column Row Layer    Maximum-Flux-Residual          L2-NORM 
          0                 1           2             4    7     1       0.6851090518E-02       4    7    1         0.3587052969E+00      0.1077046824E+01
          0                 2           2             4    7     1      -0.6661626454E-03       4    7    1        -0.3587058634E-01      0.1052928426E+00
          0                 3           1             4    7     1       0.4537145417E-04       4    7    1         0.2510941572E-02      0.7313115082E-02

    ------------------------------------------------
       NWT REQUIRED            3 OUTER ITERATIONS 
       AND A TOTAL OF          5 INNER ITERATIONS.
    ------------------------------------------------

 NO OUTPUT CONTROL FOR STRESS PERIOD   28   TIME STEP   15
 
 SOLVING FOR HEAD 
                                                   Max.-Head-Change                         Max.-Flux-Residual
  Residual-Control   Outer-Iter.   Inner-Iter.     Column Row Layer    Maximum-Head-Change  Column Row Layer    Maximum-Flux-Residual          L2-NORM 
          0                 1           2             4    7     1       0.6799541896E-02       4    7    1         0.3559899725E+00      0.1063053385E+01
          0                 2           2             4    7     1      -0.6611498495E-03       4    7    1        -0.3559905280E-01      0.1039370801E+00
          0                 3           1             4    7     1       0.4503005463E-04       4    7    1         0.2491934226E-02      0.7222473875E-02

    ------------------------------------------------
       NWT REQUIRED            3 OUTER ITERATIONS 
       AND A TOTAL OF          5 INNER ITERATIONS.
    ------------------------------------------------

 NO OUTPUT CONTROL FOR STRESS PERIOD   28   TIME STEP   16
 
 SOLVING FOR HEAD 
                                                   Max.-Head-Change                         Max.-Flux-Residual
  Residual-Control   Outer-Iter.   Inner-Iter.     Column Row Layer    Maximum-Head-Change  Column Row Layer    Maximum-Flux-Residual          L2-NORM 
          0                 1           2             4    7     1       0.6748660572E-02       4    7    1         0.3533097783E+00      0.1050227075E+01
          0                 2           2             4    7     1      -0.6562019590E-03       4    7    1        -0.3533103233E-01      0.1026924976E+00
          0                 3           1             4    7     1       0.4469307450E-04       4    7    1         0.2473172792E-02      0.7139313419E-02

    ------------------------------------------------
       NWT REQUIRED            3 OUTER ITERATIONS 
       AND A TOTAL OF          5 INNER ITERATIONS.
    ------------------------------------------------

 NO OUTPUT CONTROL FOR STRESS PERIOD   28   TIME STEP   17
 
 SOLVING FOR HEAD 
                                                   Max.-Head-Change                         Max.-Flux-Residual
  Residual-Control   Outer-Iter.   Inner-Iter.     Column Row Layer    Maximum-Head-Change  Column Row Layer    Maximum-Flux-Residual          L2-NORM 
          0                 1           2             4    7     1       0.6698560247E-02       4    7    1         0.3506715592E+00      0.1038414213E+01
          0                 2           2             4    7     1      -0.6513300418E-03       4    7    1        -0.3506720939E-01      0.1015472082E+00
          0                 3           1             4    7     1       0.4436126851E-04       4    7    1         0.2454705191E-02      0.7062231963E-02

    ------------------------------------------------
       NWT REQUIRED            3 OUTER ITERATIONS 
       AND A TOTAL OF          5 INNER ITERATIONS.
    ------------------------------------------------

 NO OUTPUT CONTROL FOR STRESS PERIOD   28   TIME STEP   18
 
 SOLVING FOR HEAD 
                                                   Max.-Head-Change                         Max.-Flux-Residual
  Residual-Control   Outer-Iter.   Inner-Iter.     Column Row Layer    Maximum-Head-Change  Column Row Layer    Maximum-Flux-Residual          L2-NORM 
          0                 1           2             4    7     1       0.6648951650E-02       4    7    1         0.3480590808E+00      0.1027477062E+01
          0                 2           2             4    7     1      -0.6465059502E-03       4    7    1        -0.3480596054E-01      0.1004857041E+00
          0                 3           1             4    7     1       0.4403271903E-04       4    7    1         0.2436417768E-02      0.6990773050E-02

    ------------------------------------------------
       NWT REQUIRED            3 OUTER ITERATIONS 
       AND A TOTAL OF          5 INNER ITERATIONS.
    ------------------------------------------------

 NO OUTPUT CONTROL FOR STRESS PERIOD   28   TIME STEP   19
 
 SOLVING FOR HEAD 
                                                   Max.-Head-Change                         Max.-Flux-Residual
  Residual-Control   Outer-Iter.   Inner-Iter.     Column Row Layer    Maximum-Head-Change  Column Row Layer    Maximum-Flux-Residual          L2-NORM 
          0                 1           2             4    7     1       0.6600099527E-02       4    7    1         0.3454868509E+00      0.1017317843E+01
          0                 2           2             4    7     1      -0.6417554445E-03       4    7    1        -0.3454873657E-01      0.9949953918E-01
          0                 3           1             4    7     1       0.4370918063E-04       4    7    1         0.2418412102E-02      0.6924210213E-02

    ------------------------------------------------
       NWT REQUIRED            3 OUTER ITERATIONS 
       AND A TOTAL OF          5 INNER ITERATIONS.
    ------------------------------------------------

 NO OUTPUT CONTROL FOR STRESS PERIOD   28   TIME STEP   20
 
 SOLVING FOR HEAD 
                                                   Max.-Head-Change                         Max.-Flux-Residual
  Residual-Control   Outer-Iter.   Inner-Iter.     Column Row Layer    Maximum-Head-Change  Column Row Layer    Maximum-Flux-Residual          L2-NORM 
          0                 1           2             4    7     1       0.6551980504E-02       4    7    1         0.3429538432E+00      0.1007832106E+01
          0                 2           2             4    7     1      -0.6370762417E-03       4    7    1        -0.3429543487E-01      0.9857798394E-01
          0                 3           1             4    7     1       0.4339049782E-04       4    7    1         0.2400680979E-02      0.6861628735E-02

    ------------------------------------------------
       NWT REQUIRED            3 OUTER ITERATIONS 
       AND A TOTAL OF          5 INNER ITERATIONS.
    ------------------------------------------------

 NO OUTPUT CONTROL FOR STRESS PERIOD   28   TIME STEP   21
 
 SOLVING FOR HEAD 
                                                   Max.-Head-Change                         Max.-Flux-Residual
  Residual-Control   Outer-Iter.   Inner-Iter.     Column Row Layer    Maximum-Head-Change  Column Row Layer    Maximum-Flux-Residual          L2-NORM 
          0                 1           2             4    7     1       0.6504303746E-02       4    7    1         0.3404440928E+00      0.9989365357E+00
          0                 2           2             4    7     1      -0.6324400595E-03       4    7    1        -0.3404445889E-01      0.9771393509E-01
          0                 3           1             4    7     1       0.4307474467E-04       4    7    1         0.2383112659E-02      0.6803017413E-02

    ------------------------------------------------
       NWT REQUIRED            3 OUTER ITERATIONS 
       AND A TOTAL OF          5 INNER ITERATIONS.
    ------------------------------------------------

 NO OUTPUT CONTROL FOR STRESS PERIOD   28   TIME STEP   22
 
 SOLVING FOR HEAD 
                                                   Max.-Head-Change                         Max.-Flux-Residual
  Residual-Control   Outer-Iter.   Inner-Iter.     Column Row Layer    Maximum-Head-Change  Column Row Layer    Maximum-Flux-Residual          L2-NORM 
          0                 1           2             4    7     1       0.6457336358E-02       4    7    1         0.3379720266E+00      0.9905608639E+00
          0                 2           2             4    7     1      -0.6278728708E-03       4    7    1        -0.3379725137E-01      0.9690043948E-01
          0                 3           1             4    7     1       0.4276369008E-04       4    7    1         0.2365808137E-02      0.6747810745E-02

    ------------------------------------------------
       NWT REQUIRED            3 OUTER ITERATIONS 
       AND A TOTAL OF          5 INNER ITERATIONS.
    ------------------------------------------------

 NO OUTPUT CONTROL FOR STRESS PERIOD   28   TIME STEP   23
 
 SOLVING FOR HEAD 
                                                   Max.-Head-Change                         Max.-Flux-Residual
  Residual-Control   Outer-Iter.   Inner-Iter.     Column Row Layer    Maximum-Head-Change  Column Row Layer    Maximum-Flux-Residual          L2-NORM 
          0                 1           2             4    7     1       0.6410924568E-02       4    7    1         0.3355293640E+00      0.9826451953E+00
          0                 2           2             4    7     1      -0.6233597166E-03       4    7    1        -0.3355298421E-01      0.9613074870E-01
          0                 3           1             4    7     1       0.4245631540E-04       4    7    1         0.2348709447E-02      0.6695395204E-02

    ------------------------------------------------
       NWT REQUIRED            3 OUTER ITERATIONS 
       AND A TOTAL OF          5 INNER ITERATIONS.
    ------------------------------------------------

 NO OUTPUT CONTROL FOR STRESS PERIOD   28   TIME STEP   24
 
 SOLVING FOR HEAD 
                                                   Max.-Head-Change                         Max.-Flux-Residual
  Residual-Control   Outer-Iter.   Inner-Iter.     Column Row Layer    Maximum-Head-Change  Column Row Layer    Maximum-Flux-Residual          L2-NORM 
          0                 1           2             4    7     1       0.6365191594E-02       4    7    1         0.3331228859E+00      0.9751321603E+00
          0                 2           2             4    7     1      -0.6189125915E-03       4    7    1        -0.3331233554E-01      0.9540098500E-01
          0                 3           1             4    7     1       0.4215343657E-04       4    7    1         0.2331864021E-02      0.6645516373E-02

    ------------------------------------------------
       NWT REQUIRED            3 OUTER ITERATIONS 
       AND A TOTAL OF          5 INNER ITERATIONS.
    ------------------------------------------------

 NO OUTPUT CONTROL FOR STRESS PERIOD   28   TIME STEP   25
 
 SOLVING FOR HEAD 
                                                   Max.-Head-Change                         Max.-Flux-Residual
  Residual-Control   Outer-Iter.   Inner-Iter.     Column Row Layer    Maximum-Head-Change  Column Row Layer    Maximum-Flux-Residual          L2-NORM 
          0                 1           2             4    7     1       0.6319979371E-02       4    7    1         0.3307442264E+00      0.9679827485E+00
          0                 2           2             4    7     1      -0.6145161114E-03       4    7    1        -0.3307446877E-01      0.9470633340E-01
          0                 3           1             4    7     1       0.4185400713E-04       4    7    1         0.2315213367E-02      0.6598185365E-02

    ------------------------------------------------
       NWT REQUIRED            3 OUTER ITERATIONS 
       AND A TOTAL OF          5 INNER ITERATIONS.
    ------------------------------------------------

 NO OUTPUT CONTROL FOR STRESS PERIOD   28   TIME STEP   26
 
 SOLVING FOR HEAD 
                                                   Max.-Head-Change                         Max.-Flux-Residual
  Residual-Control   Outer-Iter.   Inner-Iter.     Column Row Layer    Maximum-Head-Change  Column Row Layer    Maximum-Flux-Residual          L2-NORM 
          0                 1           2             4    7     1       0.6275281845E-02       4    7    1         0.3283925677E+00      0.9611576607E+00
          0                 2           2             4    7     1      -0.6101743675E-03       4    7    1        -0.3283930205E-01      0.9404700836E-01
          0                 3           1             4    7     1       0.4155830518E-04       4    7    1         0.2298751683E-02      0.6553320729E-02

    ------------------------------------------------
       NWT REQUIRED            3 OUTER ITERATIONS 
       AND A TOTAL OF          5 INNER ITERATIONS.
    ------------------------------------------------

 NO OUTPUT CONTROL FOR STRESS PERIOD   28   TIME STEP   27
 
 SOLVING FOR HEAD 
                                                   Max.-Head-Change                         Max.-Flux-Residual
  Residual-Control   Outer-Iter.   Inner-Iter.     Column Row Layer    Maximum-Head-Change  Column Row Layer    Maximum-Flux-Residual          L2-NORM 
          0                 1           2             4    7     1       0.6231202383E-02       4    7    1         0.3260747242E+00      0.9545958375E+00
          0                 2           2             4    7     1      -0.6058833872E-03       4    7    1        -0.3260751694E-01      0.9340475283E-01
          0                 3           1             4    7     1       0.4126606079E-04       4    7    1         0.2282526755E-02      0.6508814119E-02

    ------------------------------------------------
       NWT REQUIRED            3 OUTER ITERATIONS 
       AND A TOTAL OF          5 INNER ITERATIONS.
    ------------------------------------------------

 NO OUTPUT CONTROL FOR STRESS PERIOD   28   TIME STEP   28
 
 SOLVING FOR HEAD 
                                                   Max.-Head-Change                         Max.-Flux-Residual
  Residual-Control   Outer-Iter.   Inner-Iter.     Column Row Layer    Maximum-Head-Change  Column Row Layer    Maximum-Flux-Residual          L2-NORM 
          0                 1           2             4    7     1       0.6187475238E-02       4    7    1         0.3237746690E+00      0.9483034307E+00
          0                 2           2             4    7     1      -0.6016313383E-03       4    7    1        -0.3237751064E-01      0.9279293174E-01
          0                 3           1             4    7     1       0.4097646666E-04       4    7    1         0.2266426290E-02      0.6466967383E-02

    ------------------------------------------------
       NWT REQUIRED            3 OUTER ITERATIONS 
       AND A TOTAL OF          5 INNER ITERATIONS.
    ------------------------------------------------

 NO OUTPUT CONTROL FOR STRESS PERIOD   28   TIME STEP   29
 
 SOLVING FOR HEAD 
                                                   Max.-Head-Change                         Max.-Flux-Residual
  Residual-Control   Outer-Iter.   Inner-Iter.     Column Row Layer    Maximum-Head-Change  Column Row Layer    Maximum-Flux-Residual          L2-NORM 
          0                 1           2             4    7     1       0.6144494204E-02       4    7    1         0.3215147657E+00      0.9422439326E+00
          0                 2           2             4    7     1      -0.5974518631E-03       4    7    1        -0.3215151955E-01      0.9220407546E-01
          0                 3           1             4    7     1       0.4069181581E-04       4    7    1         0.2250606922E-02      0.6426395499E-02

    ------------------------------------------------
       NWT REQUIRED            3 OUTER ITERATIONS 
       AND A TOTAL OF          5 INNER ITERATIONS.
    ------------------------------------------------

 NO OUTPUT CONTROL FOR STRESS PERIOD   28   TIME STEP   30



 STREAM LISTING     PERIOD     28   STEP       30

 LAYER ROW COL. STREAM  RCH.  FLOW INTO     FLOW TO   FLOW OUT OF   OVRLND.     DIRECT     STREAM       STREAM     STREAM     STREAM   STREAMBED  STREAMBED
                SEG.NO.  NO.  STRM. RCH.    AQUIFER    STRM. RCH.    RUNOFF     PRECIP       ET          HEAD       DEPTH      WIDTH   CONDCTNC.   GRADIENT

   1    1    1     1     1    5.7748E+01  3.6407E-01   5.7384E+01  0.000E+00  0.000E+00  0.000E+00  1.09455E+03  1.498E+00  1.799E+01  8.095E-02  1.499E+00
   1    2    2     1     2    5.7384E+01  5.6377E-01   5.6820E+01  0.000E+00  0.000E+00  0.000E+00  1.08955E+03  1.492E+00  1.793E+01  1.255E-01  1.497E+00
   1    3    3     1     3    5.6820E+01  4.8075E-01   5.6340E+01  0.000E+00  0.000E+00  0.000E+00  1.08390E+03  1.485E+00  1.786E+01  1.072E-01  1.495E+00
   1    3    4     1     4    5.6340E+01  4.4266E-01   5.5897E+01  0.000E+00  0.000E+00  0.000E+00  1.07889E+03  1.480E+00  1.781E+01  9.882E-02  1.493E+00
   1    4    5     2     1    5.3897E+01  3.8302E-01   5.3514E+01  0.000E+00  0.000E+00  0.000E+00  1.07384E+03  1.911E+00  1.200E+01  7.800E-02  1.637E+00
   1    5    6     2     2    5.3514E+01  2.9420E-01   5.3220E+01  0.000E+00  0.000E+00  0.000E+00  1.06841E+03  1.903E+00  1.200E+01  6.000E-02  1.634E+00
   1    6    6     2     3    5.3220E+01  2.9382E-01   5.2926E+01  0.000E+00  0.000E+00  0.000E+00  1.06369E+03  1.897E+00  1.200E+01  6.000E-02  1.632E+00
   1    7    6     2     4    5.2926E+01  2.9344E-01   5.2633E+01  0.000E+00  0.000E+00  0.000E+00  1.05897E+03  1.891E+00  1.200E+01  6.000E-02  1.630E+00
   1    8    6     2     5    5.2633E+01  2.9306E-01   5.2339E+01  0.000E+00  0.000E+00  0.000E+00  1.05424E+03  1.884E+00  1.200E+01  6.000E-02  1.628E+00
   1    3    5     3     1    2.0000E+00  2.8252E-01   1.7175E+00  0.000E+00  0.000E+00  0.000E+00  1.07555E+03  1.909E+00  9.636E+00  7.227E-02  1.955E+00
   1    3    6     3     2    1.7175E+00  2.4905E-01   1.4684E+00  0.000E+00  0.000E+00  0.000E+00  1.07264E+03  1.727E+00  8.909E+00  6.682E-02  1.864E+00
   1    3    7     3     3    1.4684E+00  1.9718E-01   1.2712E+00  0.000E+00  0.000E+00  0.000E+00  1.06987E+03  1.555E+00  8.218E+00  5.547E-02  1.777E+00
   1    4    8     3     4    1.2712E+00  2.2567E-01   1.0456E+00  0.000E+00  0.000E+00  0.000E+00  1.06682E+03  1.364E+00  7.455E+00  6.709E-02  1.682E+00
   1    5    8     3     5    1.0456E+00  1.5790E-01   8.8768E-01  0.000E+00  0.000E+00  0.000E+00  1.06362E+03  1.164E+00  6.655E+00  4.991E-02  1.582E+00
   1    6    8     3     6    8.8768E-01  5.5980E-02   8.3170E-01  0.000E+00  0.000E+00  0.000E+00  1.06158E+03  1.036E+00  6.145E+00  1.844E-02  1.518E+00
   1    5   10     4     1    1.0000E+01  9.0919E-02   9.9091E+00  0.000E+00  0.000E+00  0.000E+00  1.07836E+03  6.368E-01  1.000E+01  2.500E-02  1.212E+00
   1    5    9     4     2    9.9091E+00  1.8158E-01   9.7275E+00  0.000E+00  0.000E+00  0.000E+00  1.07154E+03  6.315E-01  1.000E+01  5.000E-02  1.211E+00
   1    6    8     4     3    9.7275E+00  1.2689E-01   9.6006E+00  0.000E+00  0.000E+00  0.000E+00  1.06381E+03  6.256E-01  1.000E+01  3.500E-02  1.209E+00
   1    6    8     5     1    1.0432E+01  2.2686E-01   1.0205E+01  0.000E+00  0.000E+00  0.000E+00  1.05868E+03  6.790E-01  1.542E+01  6.166E-02  1.226E+00
   1    7    7     5     2    1.0205E+01  2.7894E-01   9.9265E+00  0.000E+00  0.000E+00  0.000E+00  1.05417E+03  6.732E-01  1.519E+01  7.594E-02  1.224E+00
   1    8    7     5     3    9.9265E+00  1.9221E-01   9.7343E+00  0.000E+00  0.000E+00  0.000E+00  1.04992E+03  6.676E-01  1.497E+01  5.241E-02  1.223E+00
   1    8    6     5     4    9.7343E+00  1.3577E-01   9.5985E+00  0.000E+00  0.000E+00  0.000E+00  1.04691E+03  6.637E-01  1.482E+01  3.706E-02  1.221E+00
   1    9    6     6     1    6.1938E+01  3.0608E-01   6.1632E+01  0.000E+00  0.000E+00  0.000E+00  1.04483E+03  2.101E+00  1.200E+01  6.000E-02  1.700E+00
   1   10    7     6     2    6.1632E+01  3.0571E-01   6.1326E+01  0.000E+00  0.000E+00  0.000E+00  1.04028E+03  2.095E+00  1.200E+01  6.000E-02  1.698E+00
   1   11    7     6     3    6.1326E+01  3.0533E-01   6.1021E+01  0.000E+00  0.000E+00  0.000E+00  1.03573E+03  2.089E+00  1.200E+01  6.000E-02  1.696E+00
   1   12    7     6     4    6.1021E+01  3.0496E-01   6.0716E+01  0.000E+00  0.000E+00  0.000E+00  1.03117E+03  2.083E+00  1.200E+01  6.000E-02  1.694E+00
   1   13    7     6     5    6.0716E+01  2.3369E-02   6.0693E+01  0.000E+00  0.000E+00  0.000E+00  1.02799E+03  2.079E+00  1.200E+01  2.400E-02  3.246E-01
   1   14    9     7     1    1.5000E+02  1.3419E+00   1.4866E+02  0.000E+00  0.000E+00  0.000E+00  1.03987E+03  2.288E+00  5.529E+01  5.593E-01  7.997E-01
   1   13    8     7     2    1.4866E+02  1.8544E+00   1.4680E+02  0.000E+00  0.000E+00  0.000E+00  1.03478E+03  2.279E+00  5.526E+01  6.148E-01  1.005E+00
   1   13    7     7     3    1.4680E+02  1.4938E+00   1.4531E+02  0.000E+00  0.000E+00  0.000E+00  1.02969E+03  2.270E+00  5.522E+01  5.584E-01  8.917E-01
   1   13    6     8     1    2.0600E+02  1.0984E+00   2.0490E+02  0.000E+00  0.000E+00  0.000E+00  1.02504E+03  3.170E+00  4.596E+01  4.683E-01  7.818E-01
   1   13    5     8     2    2.0490E+02  2.9090E-01   2.0461E+02  0.000E+00  0.000E+00  0.000E+00  1.01879E+03  3.166E+00  4.590E+01  4.677E-01  2.073E-01
   1   13    4     8     3    2.0461E+02 -2.1451E+00   2.0676E+02  0.000E+00  0.000E+00  0.000E+00  1.01255E+03  3.171E+00  4.598E+01  4.685E+00 -1.526E-01
   1   13    3     8     4    2.0676E+02 -3.4862E+00   2.1024E+02  0.000E+00  0.000E+00  0.000E+00  1.00631E+03  3.187E+00  4.621E+01  4.709E+00 -2.468E-01
   1   13    2     8     5    2.1024E+02 -2.4645E+00   2.1271E+02  0.000E+00  0.000E+00  0.000E+00  1.00008E+03  3.204E+00  4.646E+01  4.734E+00 -1.735E-01
   1   13    1     8     6    2.1271E+02 -1.8843E+00   2.1459E+02  0.000E+00  0.000E+00  0.000E+00  9.95091E+02  3.216E+00  4.664E+01  2.852E+00 -2.203E-01
   1    8    6     9     1    0.0000E+00  0.0000E+00   0.0000E+00  0.000E+00  0.000E+00  0.000E+00  1.07875E+03  0.000E+00  4.000E+00  0.000E+00  1.000E+00
   1    8    5     9     2    0.0000E+00  0.0000E+00   0.0000E+00  0.000E+00  0.000E+00  0.000E+00  1.07825E+03  0.000E+00  4.000E+00  0.000E+00  1.000E+00





UNSATURATED ZONE PACKAGE VOLUMETRIC BUDGET FOR  TIME STEP    30 STRESS PERIOD   28
  ------------------------------------------------------------------------------



     CUMULATIVE VOLUMES      L**3       RATES FOR THIS TIME STEP      L**3/T
     ------------------                 ------------------------

           IN:                                      IN:
           ---                                      ---
        INFILTRATION =  1043379714.8877          INFILTRATION =           0.8475

          OUT:                                     OUT:
          ----                                     ----
              UZF ET =   867257164.7723                UZF ET =           0.7500
        UZF RECHARGE =     2739110.6151          UZF RECHARGE =           0.0311

            IN - OUT =   173383439.5003              IN - OUT =       6.6358E-02

          STORAGE:                                 STORAGE:
          --------                                 --------
      STORAGE CHANGE =   173383906.0197        STORAGE CHANGE =       6.6358E-02

 PERCENT DISCREPANCY IS DIFFERENCE BETWEEN IN-OUT MINUS CHANGE IN STORAGE
 DIVIDED BY THE AVERAGE OF IN AND OUT TIMES 100

 PERCENT DISCREPANCY =          -0.00     PERCENT DISCREPANCY =           0.00






1
  VOLUMETRIC BUDGET FOR AGRICULTURAL FIELDS AT  END OF TIME STEP   30, STRESS PERIOD  28
  ------------------------------------------------------------------------------

     CUMULATIVE VOLUMES      L**3       RATES FOR THIS TIME STEP      L**3/T
     ------------------                 ------------------------

           IN:                                      IN:
           ---                                      ---
               AG WELLS  =   391007552.0000                 AG WELLS  =           0.0000
      DIVERSION SEGMENTS =   592111808.0000        DIVERSION SEGMENTS =           0.0000
           GW IRRIGATION =           0.0000             GW IRRIGATION =           0.0000
           SW IRRIGATION =           0.0000             SW IRRIGATION =           0.0000
        SYSTEM LOSSES GW =           0.0000          SYSTEM LOSSES GW =           0.0000
        SYSTEM LOSSES SW =           0.0000          SYSTEM LOSSES SW =           0.0000

                TOTAL IN =   983119360.0000                  TOTAL IN =           0.0000

          OUT:                                     OUT:
          ----                                     ----
               AG WELLS  =           0.0000                 AG WELLS  =           0.0000
      DIVERSION SEGMENTS =           0.0000        DIVERSION SEGMENTS =           0.0000
           GW IRRIGATION =   391007552.0000             GW IRRIGATION =           0.0000
           SW IRRIGATION =   592123584.0000             SW IRRIGATION =           0.0000
        SYSTEM LOSSES GW =           0.0000          SYSTEM LOSSES GW =           0.0000
        SYSTEM LOSSES SW =           0.0000          SYSTEM LOSSES SW =           0.0000

               TOTAL OUT =   983131136.0000                 TOTAL OUT =           0.0000

                IN - OUT =      -11776.0000                  IN - OUT =           0.0000

     PERCENT DISCREPANCY =          -0.00         PERCENT DISCREPANCY =           0.00



1
  VOLUMETRIC BUDGET FOR ENTIRE MODEL AT END OF TIME STEP   30, STRESS PERIOD  28
  ------------------------------------------------------------------------------

     CUMULATIVE VOLUMES      L**3       RATES FOR THIS TIME STEP      L**3/T
     ------------------                 ------------------------

           IN:                                      IN:
           ---                                      ---
             STORAGE     =   649926912.0000               STORAGE     =           1.7003
       CONSTANT HEAD     =           0.0000         CONSTANT HEAD     =           0.0000
     HEAD DEP BOUNDS     =    20321506.0000       HEAD DEP BOUNDS     =           0.2862
      STREAM LEAKAGE     =   848012416.0000        STREAM LEAKAGE     =          13.1351
        UZF RECHARGE     =     2739111.0000          UZF RECHARGE     =       3.1142E-02
               GW ET     =           0.0000                 GW ET     =           0.0000
     SURFACE LEAKAGE     =           0.0000       SURFACE LEAKAGE     =           0.0000
           AG WELLS      =           0.0000             AG WELLS      =           0.0000

                TOTAL IN =  1520999936.0000                  TOTAL IN =          15.1527

          OUT:                                     OUT:
          ----                                     ----
             STORAGE     =   345348192.0000               STORAGE     =           4.8780
       CONSTANT HEAD     =           0.0000         CONSTANT HEAD     =           0.0000
     HEAD DEP BOUNDS     =    20662400.0000       HEAD DEP BOUNDS     =           0.2946
      STREAM LEAKAGE     =   761851072.0000        STREAM LEAKAGE     =           9.9800
        UZF RECHARGE     =           0.0000          UZF RECHARGE     =           0.0000
               GW ET     =     2142574.2500                 GW ET     =       8.4133E-04
     SURFACE LEAKAGE     =           0.0000       SURFACE LEAKAGE     =           0.0000
           AG WELLS      =   391007552.0000             AG WELLS      =           0.0000

               TOTAL OUT =  1521011712.0000                 TOTAL OUT =          15.1535

                IN - OUT =      -11776.0000                  IN - OUT =      -8.2588E-04

     PERCENT DISCREPANCY =          -0.00         PERCENT DISCREPANCY =          -0.01






         TIME SUMMARY AT END OF TIME STEP   30 IN STRESS PERIOD   28
                    SECONDS     MINUTES      HOURS       DAYS        YEARS
                    -----------------------------------------------------------
   TIME STEP LENGTH  87667.      1461.1      24.352      1.0147     2.77799E-03
 STRESS PERIOD TIME 2.63000E+06  43833.      730.56      30.440     8.33397E-02
         TOTAL TIME 7.10967E+07 1.18494E+06  19749.      822.88      2.2529    
1
1
                            STRESS PERIOD NO.   29, LENGTH =   2630000.    
                            -----------------------------------------------

                              NUMBER OF TIME STEPS =    30

                               MULTIPLIER FOR DELT =     1.000

                            INITIAL TIME STEP SIZE =   87666.66    

 REUSING NON-PARAMETER GHB CELLS FROM LAST STRESS PERIOD

      2 GHB CELLS

 REUSING STREAM SEGMENT DATA FROM LAST STRESS PERIOD



            AREAL INFILTRATION RATE
 READING ON UNIT   19 WITH FORMAT: (FREE)              

            1           2           3           4           5           6           7           8           9          10
 ........................................................................................................................
   1   1.0000E-10  2.0000E-10   0.000       0.000       0.000       0.000       0.000       0.000       0.000       0.000    
   2   2.0000E-10  1.0000E-10  2.0000E-10   0.000       0.000      8.0000E-10  8.0000E-10  5.0000E-10   0.000       0.000    
   3    0.000      5.0000E-10  1.0000E-10  1.0000E-10  8.0000E-10  8.0000E-10  5.0000E-10  5.0000E-10   0.000       0.000    
   4   8.0000E-10  5.0000E-10  1.0000E-10  1.0000E-10  1.0000E-10  1.0000E-10  1.0000E-10  1.0000E-10  2.0000E-10   0.000    
   5   8.0000E-10  5.0000E-10  1.0000E-10  1.0000E-10  1.0000E-10  1.0000E-10  1.0000E-10  1.0000E-10  1.0000E-10  1.0000E-10
   6   8.0000E-10  5.0000E-10  5.0000E-10  2.0000E-10  2.0000E-10  1.0000E-10  1.0000E-10  1.0000E-10  1.0000E-10  5.0000E-10
   7   8.0000E-10  5.0000E-10  5.0000E-10  2.0000E-10  2.0000E-10  1.0000E-10  1.0000E-10  2.0000E-10  2.0000E-10   0.000    
   8    0.000      5.0000E-10  5.0000E-10  2.0000E-10  2.0000E-10  1.0000E-10  1.0000E-10  2.0000E-10  5.0000E-10   0.000    
   9    0.000      5.0000E-10  5.0000E-10  2.0000E-10  2.0000E-10  1.0000E-10  1.0000E-10  2.0000E-10  5.0000E-10   0.000    
  10    0.000      5.0000E-10  5.0000E-10  2.0000E-10  2.0000E-10  1.0000E-10  1.0000E-10  2.0000E-10  5.0000E-10  8.0000E-10
  11    0.000      1.0000E-10  1.0000E-10  1.0000E-10  1.0000E-10  1.0000E-10  1.0000E-10  2.0000E-10  5.0000E-10   0.000    
  12   1.0000E-10  1.0000E-10  1.0000E-10  1.0000E-10  1.0000E-10  1.0000E-10  1.0000E-10  1.0000E-10  2.0000E-10   0.000    
  13   1.0000E-10  1.0000E-10  2.0000E-10  2.0000E-10  2.0000E-10  2.0000E-10  2.0000E-10  1.0000E-10  1.0000E-10   0.000    
  14    0.000      2.0000E-10  5.0000E-10  5.0000E-10  5.0000E-10  5.0000E-10  5.0000E-10  2.0000E-10  1.0000E-10   0.000    
  15    0.000       0.000      8.0000E-10  8.0000E-10  8.0000E-10  8.0000E-10   0.000       0.000       0.000       0.000    

                  ET RATE =  2.500000E-08

 USING ET EXTINCTION DEPTH FROM PREVIOUS STRESS PERIOD. CURRENT PERIOD IS:      29

 USING EXTINCTION WATER CONTENT FROM PREVIOUS STRESS PERIOD. CURRENT PERIOD IS:      29

 USING AIR ENTRY PRESSURE FROM PREVIOUS STRESS PERIOD. CURRENT PERIOD IS:      29

 USING ROOT PRESSURE HEAD FROM PREVIOUS STRESS PERIOD. CURRENT PERIOD IS:      29

 USING ROOT ACTIVITY FROM PREVIOUS STRESS PERIOD. CURRENT PERIOD IS:      29

 PROCESSING AG STRESS PERIOD DATA

 READING AG STRESS PERIOD DATA

 READING IRRIGATION SEGMENT

 READING IRRIGATION WELL

 READING SUPPLEMENTAL WELL

 END PROCESSING AG STRESS PERIOD DATA OPTIONS
 
 SOLVING FOR HEAD 
                                                   Max.-Head-Change                         Max.-Flux-Residual
  Residual-Control   Outer-Iter.   Inner-Iter.     Column Row Layer    Maximum-Head-Change  Column Row Layer    Maximum-Flux-Residual          L2-NORM 
          0                 1           2             4    7     1       0.6101827858E-02       4    7    1         0.3192714148E+00      0.9353496156E+00
          0                 2           2             4    7     1      -0.5933029944E-03       4    7    1        -0.3192718371E-01      0.9155110673E-01
          0                 3           1             4    7     1       0.4040924875E-04       4    7    1         0.2234903411E-02      0.6383358220E-02

    ------------------------------------------------
       NWT REQUIRED            3 OUTER ITERATIONS 
       AND A TOTAL OF          5 INNER ITERATIONS.
    ------------------------------------------------

 NO OUTPUT CONTROL FOR STRESS PERIOD   29   TIME STEP    1
 
 SOLVING FOR HEAD 
                                                   Max.-Head-Change                         Max.-Flux-Residual
  Residual-Control   Outer-Iter.   Inner-Iter.     Column Row Layer    Maximum-Head-Change  Column Row Layer    Maximum-Flux-Residual          L2-NORM 
          0                 1           2             4   13     1      -0.1056106525E-01       4   13    1        -0.6183402727E+00      0.1362990682E+01
          0                 2           2             3   13     1       0.9572693445E-03       3   13    1         0.5690462412E-01      0.1294302397E+00
          0                 3           1             3   13     1      -0.6319818036E-04       3   13    1        -0.3862115123E-02      0.8855089471E-02

    ------------------------------------------------
       NWT REQUIRED            3 OUTER ITERATIONS 
       AND A TOTAL OF          5 INNER ITERATIONS.
    ------------------------------------------------

 NO OUTPUT CONTROL FOR STRESS PERIOD   29   TIME STEP    2
 
 SOLVING FOR HEAD 
                                                   Max.-Head-Change                         Max.-Flux-Residual
  Residual-Control   Outer-Iter.   Inner-Iter.     Column Row Layer    Maximum-Head-Change  Column Row Layer    Maximum-Flux-Residual          L2-NORM 
          0                 1           2             4   13     1      -0.1205817460E-01       4   13    1        -0.6915437701E+00      0.1473770513E+01
          0                 2           2             4   13     1       0.1162349652E-02       4   13    1         0.6853897717E-01      0.1436444269E+00
          0                 3           1             4   13     1      -0.7816300565E-04       4   13    1        -0.4738654857E-02      0.9805509049E-02

    ------------------------------------------------
       NWT REQUIRED            3 OUTER ITERATIONS 
       AND A TOTAL OF          5 INNER ITERATIONS.
    ------------------------------------------------

 NO OUTPUT CONTROL FOR STRESS PERIOD   29   TIME STEP    3
 
 SOLVING FOR HEAD 
                                                   Max.-Head-Change                         Max.-Flux-Residual
  Residual-Control   Outer-Iter.   Inner-Iter.     Column Row Layer    Maximum-Head-Change  Column Row Layer    Maximum-Flux-Residual          L2-NORM 
          0                 1           2             4   13     1      -0.1093084941E-01       4   13    1        -0.6266836219E+00      0.1390567206E+01
          0                 2           2             4   13     1       0.1053584760E-02       4   13    1         0.6210486104E-01      0.1355407012E+00
          0                 3           1             4   13     1      -0.7083723763E-04       4   13    1        -0.4293070935E-02      0.9262871337E-02

    ------------------------------------------------
       NWT REQUIRED            3 OUTER ITERATIONS 
       AND A TOTAL OF          5 INNER ITERATIONS.
    ------------------------------------------------

 NO OUTPUT CONTROL FOR STRESS PERIOD   29   TIME STEP    4
 
 SOLVING FOR HEAD 
                                                   Max.-Head-Change                         Max.-Flux-Residual
  Residual-Control   Outer-Iter.   Inner-Iter.     Column Row Layer    Maximum-Head-Change  Column Row Layer    Maximum-Flux-Residual          L2-NORM 
          0                 1           2             4   13     1      -0.9912461667E-02       4   13    1        -0.5680981396E+00      0.1316994921E+01
          0                 2           2             4   13     1       0.9553156206E-03       4   13    1         0.5629233393E-01      0.1283787127E+00
          0                 3           1             4   13     1      -0.6422957265E-04       4   13    1        -0.3891239548E-02      0.8783280930E-02

    ------------------------------------------------
       NWT REQUIRED            3 OUTER ITERATIONS 
       AND A TOTAL OF          5 INNER ITERATIONS.
    ------------------------------------------------

 NO OUTPUT CONTROL FOR STRESS PERIOD   29   TIME STEP    5
 
 SOLVING FOR HEAD 
                                                   Max.-Head-Change                         Max.-Flux-Residual
  Residual-Control   Outer-Iter.   Inner-Iter.     Column Row Layer    Maximum-Head-Change  Column Row Layer    Maximum-Flux-Residual          L2-NORM 
          0                 1           2             2   13     1      -0.9052289881E-02       4   13    1        -0.5151810384E+00      0.1252028344E+01
          0                 2           2             4   13     1       0.8666296938E-03       4   13    1         0.5104734813E-01      0.1220619312E+00
          0                 3           1             4   13     1      -0.5824314602E-04       4   13    1        -0.3527217679E-02      0.8360274282E-02

    ------------------------------------------------
       NWT REQUIRED            3 OUTER ITERATIONS 
       AND A TOTAL OF          5 INNER ITERATIONS.
    ------------------------------------------------

 NO OUTPUT CONTROL FOR STRESS PERIOD   29   TIME STEP    6
 
 SOLVING FOR HEAD 
                                                   Max.-Head-Change                         Max.-Flux-Residual
  Residual-Control   Outer-Iter.   Inner-Iter.     Column Row Layer    Maximum-Head-Change  Column Row Layer    Maximum-Flux-Residual          L2-NORM 
          0                 1           2             2   13     1      -0.8380942100E-02       2   13    1        -0.4715218685E+00      0.1194702859E+01
          0                 2           2             4   13     1       0.7863562286E-03       4   13    1         0.4630046398E-01      0.1164906822E+00
          0                 3           1             4   13     1      -0.5285065735E-04       4   13    1        -0.3199350058E-02      0.7989864792E-02

    ------------------------------------------------
       NWT REQUIRED            3 OUTER ITERATIONS 
       AND A TOTAL OF          5 INNER ITERATIONS.
    ------------------------------------------------

 NO OUTPUT CONTROL FOR STRESS PERIOD   29   TIME STEP    7
 
 SOLVING FOR HEAD 
                                                   Max.-Head-Change                         Max.-Flux-Residual
  Residual-Control   Outer-Iter.   Inner-Iter.     Column Row Layer    Maximum-Head-Change  Column Row Layer    Maximum-Flux-Residual          L2-NORM 
          0                 1           2             2   13     1      -0.7758894838E-02       2   13    1        -0.4365292411E+00      0.1144154366E+01
          0                 2           2             2   13     1       0.7241426762E-03       4   13    1         0.4201546218E-01      0.1094100440E+00
          0                 3           1             3   13     1      -0.4947208616E-04       3   13    1        -0.2958984769E-02      0.7806043026E-02

    ------------------------------------------------
       NWT REQUIRED            3 OUTER ITERATIONS 
       AND A TOTAL OF          5 INNER ITERATIONS.
    ------------------------------------------------

 NO OUTPUT CONTROL FOR STRESS PERIOD   29   TIME STEP    8
 
 SOLVING FOR HEAD 
                                                   Max.-Head-Change                         Max.-Flux-Residual
  Residual-Control   Outer-Iter.   Inner-Iter.     Column Row Layer    Maximum-Head-Change  Column Row Layer    Maximum-Flux-Residual          L2-NORM 
          0                 1           2             2   13     1      -0.7185698461E-02       2   13    1        -0.4041784772E+00      0.1101431972E+01
          0                 2           2             2   13     1       0.6714364752E-03       2   13    1         0.3882163815E-01      0.1074284706E+00
          0                 3           1             4   13     1      -0.4358557517E-04       4   13    1        -0.2635348979E-02      0.7386294776E-02

    ------------------------------------------------
       NWT REQUIRED            3 OUTER ITERATIONS 
       AND A TOTAL OF          5 INNER ITERATIONS.
    ------------------------------------------------

 NO OUTPUT CONTROL FOR STRESS PERIOD   29   TIME STEP    9
 
 SOLVING FOR HEAD 
                                                   Max.-Head-Change                         Max.-Flux-Residual
  Residual-Control   Outer-Iter.   Inner-Iter.     Column Row Layer    Maximum-Head-Change  Column Row Layer    Maximum-Flux-Residual          L2-NORM 
          0                 1           2             2   13     1      -0.6654681106E-02       2   13    1        -0.3742583246E+00      0.1063840764E+01
          0                 2           2             2   13     1       0.6219331987E-03       2   13    1         0.3595430386E-01      0.1037841252E+00
          0                 3           1             2   13     1      -0.4001359151E-04       4   13    1        -0.2393979579E-02      0.7144080481E-02

    ------------------------------------------------
       NWT REQUIRED            3 OUTER ITERATIONS 
       AND A TOTAL OF          5 INNER ITERATIONS.
    ------------------------------------------------

 NO OUTPUT CONTROL FOR STRESS PERIOD   29   TIME STEP   10
 
 SOLVING FOR HEAD 
                                                   Max.-Head-Change                         Max.-Flux-Residual
  Residual-Control   Outer-Iter.   Inner-Iter.     Column Row Layer    Maximum-Head-Change  Column Row Layer    Maximum-Flux-Residual          L2-NORM 
          0                 1           2             2   13     1      -0.6163724167E-02       2   13    1        -0.3465982591E+00      0.1030378543E+01
          0                 2           2             2   13     1       0.5761616594E-03       2   13    1         0.3330341629E-01      0.1005420293E+00
          0                 3           1             4    7     1       0.3769155170E-04       2   13    1        -0.2202699388E-02      0.6928571585E-02

    ------------------------------------------------
       NWT REQUIRED            3 OUTER ITERATIONS 
       AND A TOTAL OF          5 INNER ITERATIONS.
    ------------------------------------------------

 NO OUTPUT CONTROL FOR STRESS PERIOD   29   TIME STEP   11
 
 SOLVING FOR HEAD 
                                                   Max.-Head-Change                         Max.-Flux-Residual
  Residual-Control   Outer-Iter.   Inner-Iter.     Column Row Layer    Maximum-Head-Change  Column Row Layer    Maximum-Flux-Residual          L2-NORM 
          0                 1           2             2   13     1      -0.5709671990E-02       2   13    1        -0.3210198945E+00      0.1000579308E+01
          0                 2           2             4    7     1      -0.5495732248E-03       2   13    1         0.3085020274E-01      0.9765567791E-01
          0                 3           1             4    7     1       0.3743072450E-04       4    7    1         0.2070148997E-02      0.6736095617E-02

    ------------------------------------------------
       NWT REQUIRED            3 OUTER ITERATIONS 
       AND A TOTAL OF          5 INNER ITERATIONS.
    ------------------------------------------------

 NO OUTPUT CONTROL FOR STRESS PERIOD   29   TIME STEP   12
 
 SOLVING FOR HEAD 
                                                   Max.-Head-Change                         Max.-Flux-Residual
  Residual-Control   Outer-Iter.   Inner-Iter.     Column Row Layer    Maximum-Head-Change  Column Row Layer    Maximum-Flux-Residual          L2-NORM 
          0                 1           2             4    7     1       0.5612913283E-02       2   13    1        -0.2973677375E+00      0.9739940940E+00
          0                 2           2             4    7     1      -0.5457684413E-03       4    7    1        -0.2936858862E-01      0.9508308216E-01
          0                 3           1             4    7     1       0.3717157946E-04       4    7    1         0.2055801739E-02      0.6565397417E-02

    ------------------------------------------------
       NWT REQUIRED            3 OUTER ITERATIONS 
       AND A TOTAL OF          5 INNER ITERATIONS.
    ------------------------------------------------

 NO OUTPUT CONTROL FOR STRESS PERIOD   29   TIME STEP   13
 
 SOLVING FOR HEAD 
                                                   Max.-Head-Change                         Max.-Flux-Residual
  Residual-Control   Outer-Iter.   Inner-Iter.     Column Row Layer    Maximum-Head-Change  Column Row Layer    Maximum-Flux-Residual          L2-NORM 
          0                 1           2             4    7     1       0.5574178645E-02       4    7    1         0.2916564830E+00      0.9502512193E+00
          0                 2           2             4    7     1      -0.5420022786E-03       4    7    1        -0.2916568312E-01      0.9278595773E-01
          0                 3           1             4    7     1       0.3691506539E-04       4    7    1         0.2041598358E-02      0.6412533006E-02

    ------------------------------------------------
       NWT REQUIRED            3 OUTER ITERATIONS 
       AND A TOTAL OF          5 INNER ITERATIONS.
    ------------------------------------------------

 NO OUTPUT CONTROL FOR STRESS PERIOD   29   TIME STEP   14
 
 SOLVING FOR HEAD 
                                                   Max.-Head-Change                         Max.-Flux-Residual
  Residual-Control   Outer-Iter.   Inner-Iter.     Column Row Layer    Maximum-Head-Change  Column Row Layer    Maximum-Flux-Residual          L2-NORM 
          0                 1           2             4    7     1       0.5535699268E-02       4    7    1         0.2896406624E+00      0.9289934207E+00
          0                 2           2             4    7     1      -0.5382609028E-03       4    7    1        -0.2896410053E-01      0.9073019372E-01
          0                 3           1             4    7     1       0.3666024047E-04       4    7    1         0.2027487575E-02      0.6276153802E-02

    ------------------------------------------------
       NWT REQUIRED            3 OUTER ITERATIONS 
       AND A TOTAL OF          5 INNER ITERATIONS.
    ------------------------------------------------

 NO OUTPUT CONTROL FOR STRESS PERIOD   29   TIME STEP   15
 
 SOLVING FOR HEAD 
                                                   Max.-Head-Change                         Max.-Flux-Residual
  Residual-Control   Outer-Iter.   Inner-Iter.     Column Row Layer    Maximum-Head-Change  Column Row Layer    Maximum-Flux-Residual          L2-NORM 
          0                 1           2             4    7     1       0.5497614060E-02       4    7    1         0.2876454580E+00      0.9099154159E+00
          0                 2           2             4    7     1      -0.5345578276E-03       4    7    1        -0.2876457956E-01      0.8888658152E-01
          0                 3           1             4    7     1       0.3640802498E-04       4    7    1         0.2013521098E-02      0.6154323070E-02

    ------------------------------------------------
       NWT REQUIRED            3 OUTER ITERATIONS 
       AND A TOTAL OF          5 INNER ITERATIONS.
    ------------------------------------------------

 NO OUTPUT CONTROL FOR STRESS PERIOD   29   TIME STEP   16
 
 SOLVING FOR HEAD 
                                                   Max.-Head-Change                         Max.-Flux-Residual
  Residual-Control   Outer-Iter.   Inner-Iter.     Column Row Layer    Maximum-Head-Change  Column Row Layer    Maximum-Flux-Residual          L2-NORM 
          0                 1           2             4    7     1       0.5459651042E-02       4    7    1         0.2856559350E+00      0.8927475569E+00
          0                 2           2             4    7     1      -0.5308666078E-03       4    7    1        -0.2856562673E-01      0.8722678949E-01
          0                 3           1             4    7     1       0.3615661809E-04       4    7    1         0.1999594417E-02      0.6044256667E-02

    ------------------------------------------------
       NWT REQUIRED            3 OUTER ITERATIONS 
       AND A TOTAL OF          5 INNER ITERATIONS.
    ------------------------------------------------

 NO OUTPUT CONTROL FOR STRESS PERIOD   29   TIME STEP   17
 
 SOLVING FOR HEAD 
                                                   Max.-Head-Change                         Max.-Flux-Residual
  Residual-Control   Outer-Iter.   Inner-Iter.     Column Row Layer    Maximum-Head-Change  Column Row Layer    Maximum-Flux-Residual          L2-NORM 
          0                 1           2             4    7     1       0.5422228663E-02       4    7    1         0.2836948864E+00      0.8772597691E+00
          0                 2           2             4    7     1      -0.5272279394E-03       4    7    1        -0.2836952137E-01      0.8572986129E-01
          0                 3           1             4    7     1       0.3590879076E-04       4    7    1         0.1985867050E-02      0.5943918025E-02

    ------------------------------------------------
       NWT REQUIRED            3 OUTER ITERATIONS 
       AND A TOTAL OF          5 INNER ITERATIONS.
    ------------------------------------------------

 NO OUTPUT CONTROL FOR STRESS PERIOD   29   TIME STEP   18
 
 SOLVING FOR HEAD 
                                                   Max.-Head-Change                         Max.-Flux-Residual
  Residual-Control   Outer-Iter.   Inner-Iter.     Column Row Layer    Maximum-Head-Change  Column Row Layer    Maximum-Flux-Residual          L2-NORM 
          0                 1           2             4    7     1       0.5385062544E-02       4    7    1         0.2817471132E+00      0.8632252711E+00
          0                 2           2             4    7     1      -0.5236141707E-03       4    7    1        -0.2817474357E-01      0.8437424595E-01
          0                 3           1             4    7     1       0.3566265955E-04       4    7    1         0.1972232578E-02      0.5854056635E-02

    ------------------------------------------------
       NWT REQUIRED            3 OUTER ITERATIONS 
       AND A TOTAL OF          5 INNER ITERATIONS.
    ------------------------------------------------

 NO OUTPUT CONTROL FOR STRESS PERIOD   29   TIME STEP   19
 
 SOLVING FOR HEAD 
                                                   Max.-Head-Change                         Max.-Flux-Residual
  Residual-Control   Outer-Iter.   Inner-Iter.     Column Row Layer    Maximum-Head-Change  Column Row Layer    Maximum-Flux-Residual          L2-NORM 
          0                 1           2             4    7     1       0.5348155233E-02       4    7    1         0.2798126281E+00      0.8504610587E+00
          0                 2           2             4    7     1      -0.5200255421E-03       4    7    1        -0.2798129456E-01      0.8314028612E-01
          0                 3           1             4    7     1       0.3541824162E-04       4    7    1         0.1958691153E-02      0.5771542039E-02

    ------------------------------------------------
       NWT REQUIRED            3 OUTER ITERATIONS 
       AND A TOTAL OF          5 INNER ITERATIONS.
    ------------------------------------------------

 NO OUTPUT CONTROL FOR STRESS PERIOD   29   TIME STEP   20
 
 SOLVING FOR HEAD 
                                                   Max.-Head-Change                         Max.-Flux-Residual
  Residual-Control   Outer-Iter.   Inner-Iter.     Column Row Layer    Maximum-Head-Change  Column Row Layer    Maximum-Flux-Residual          L2-NORM 
          0                 1           2             4    7     1       0.5311647210E-02       4    7    1         0.2778989432E+00      0.8388210743E+00
          0                 2           2             4    7     1      -0.5164757291E-03       4    7    1        -0.2778992560E-01      0.8201565437E-01
          0                 3           1             4    7     1       0.3517646804E-04       4    7    1         0.1945295325E-02      0.5696347238E-02

    ------------------------------------------------
       NWT REQUIRED            3 OUTER ITERATIONS 
       AND A TOTAL OF          5 INNER ITERATIONS.
    ------------------------------------------------

 NO OUTPUT CONTROL FOR STRESS PERIOD   29   TIME STEP   21
 
 SOLVING FOR HEAD 
                                                   Max.-Head-Change                         Max.-Flux-Residual
  Residual-Control   Outer-Iter.   Inner-Iter.     Column Row Layer    Maximum-Head-Change  Column Row Layer    Maximum-Flux-Residual          L2-NORM 
          0                 1           2             4    7     1       0.5275400081E-02       4    7    1         0.2759985829E+00      0.8281473792E+00
          0                 2           2             4    7     1      -0.5129512616E-03       4    7    1        -0.2759988907E-01      0.8098322845E-01
          0                 3           1             4    7     1       0.3493642122E-04       4    7    1         0.1931992784E-02      0.5626730133E-02

    ------------------------------------------------
       NWT REQUIRED            3 OUTER ITERATIONS 
       AND A TOTAL OF          5 INNER ITERATIONS.
    ------------------------------------------------

 NO OUTPUT CONTROL FOR STRESS PERIOD   29   TIME STEP   22
 
 SOLVING FOR HEAD 
                                                   Max.-Head-Change                         Max.-Flux-Residual
  Residual-Control   Outer-Iter.   Inner-Iter.     Column Row Layer    Maximum-Head-Change  Column Row Layer    Maximum-Flux-Residual          L2-NORM 
          0                 1           2             4    7     1       0.5239411434E-02       4    7    1         0.2741117514E+00      0.8183169722E+00
          0                 2           2             4    7     1      -0.5094519069E-03       4    7    1        -0.2741120545E-01      0.8003317818E-01
          0                 3           1             4    7     1       0.3469808509E-04       4    7    1         0.1918784928E-02      0.5563336798E-02

    ------------------------------------------------
       NWT REQUIRED            3 OUTER ITERATIONS 
       AND A TOTAL OF          5 INNER ITERATIONS.
    ------------------------------------------------

 NO OUTPUT CONTROL FOR STRESS PERIOD   29   TIME STEP   23
 
 SOLVING FOR HEAD 
                                                   Max.-Head-Change                         Max.-Flux-Residual
  Residual-Control   Outer-Iter.   Inner-Iter.     Column Row Layer    Maximum-Head-Change  Column Row Layer    Maximum-Flux-Residual          L2-NORM 
          0                 1           2             4    7     1       0.5203824742E-02       4    7    1         0.2722457030E+00      0.8092443676E+00
          0                 2           2             4    7     1      -0.5059916307E-03       4    7    1        -0.2722460014E-01      0.7915619342E-01
          0                 3           1             4    7     1       0.3446241069E-04       4    7    1         0.1905722540E-02      0.5504536970E-02

    ------------------------------------------------
       NWT REQUIRED            3 OUTER ITERATIONS 
       AND A TOTAL OF          5 INNER ITERATIONS.
    ------------------------------------------------

 NO OUTPUT CONTROL FOR STRESS PERIOD   29   TIME STEP   24
 
 SOLVING FOR HEAD 
                                                   Max.-Head-Change                         Max.-Flux-Residual
  Residual-Control   Outer-Iter.   Inner-Iter.     Column Row Layer    Maximum-Head-Change  Column Row Layer    Maximum-Flux-Residual          L2-NORM 
          0                 1           2             4    7     1       0.5168624563E-02       4    7    1         0.2704004969E+00      0.8008102692E+00
          0                 2           2             4    7     1      -0.5025689237E-03       4    7    1        -0.2704007905E-01      0.7834039158E-01
          0                 3           1             4    7     1       0.3422929545E-04       4    7    1         0.1892806061E-02      0.5449589816E-02

    ------------------------------------------------
       NWT REQUIRED            3 OUTER ITERATIONS 
       AND A TOTAL OF          5 INNER ITERATIONS.
    ------------------------------------------------

 NO OUTPUT CONTROL FOR STRESS PERIOD   29   TIME STEP   25
 
 SOLVING FOR HEAD 
                                                   Max.-Head-Change                         Max.-Flux-Residual
  Residual-Control   Outer-Iter.   Inner-Iter.     Column Row Layer    Maximum-Head-Change  Column Row Layer    Maximum-Flux-Residual          L2-NORM 
          0                 1           2             4    7     1       0.5133684889E-02       4    7    1         0.2685679525E+00      0.7929639537E+00
          0                 2           2             4    7     1      -0.4991715389E-03       4    7    1        -0.2685682418E-01      0.7758138376E-01
          0                 3           1             4    7     1       0.3399790567E-04       4    7    1         0.1879978230E-02      0.5398027472E-02

    ------------------------------------------------
       NWT REQUIRED            3 OUTER ITERATIONS 
       AND A TOTAL OF          5 INNER ITERATIONS.
    ------------------------------------------------

 NO OUTPUT CONTROL FOR STRESS PERIOD   29   TIME STEP   26
 
 SOLVING FOR HEAD 
                                                   Max.-Head-Change                         Max.-Flux-Residual
  Residual-Control   Outer-Iter.   Inner-Iter.     Column Row Layer    Maximum-Head-Change  Column Row Layer    Maximum-Flux-Residual          L2-NORM 
          0                 1           2             4    7     1       0.5098999516E-02       4    7    1         0.2667489163E+00      0.7856057450E+00
          0                 2           2             4    7     1      -0.4957988549E-03       4    7    1        -0.2667492009E-01      0.7686928368E-01
          0                 3           1             4    7     1       0.3376819852E-04       4    7    1         0.1867244933E-02      0.5350548394E-02

    ------------------------------------------------
       NWT REQUIRED            3 OUTER ITERATIONS 
       AND A TOTAL OF          5 INNER ITERATIONS.
    ------------------------------------------------

 NO OUTPUT CONTROL FOR STRESS PERIOD   29   TIME STEP   27
 
 SOLVING FOR HEAD 
                                                   Max.-Head-Change                         Max.-Flux-Residual
  Residual-Control   Outer-Iter.   Inner-Iter.     Column Row Layer    Maximum-Head-Change  Column Row Layer    Maximum-Flux-Residual          L2-NORM 
          0                 1           2             4    7     1       0.5064840479E-02       4    7    1         0.2649578270E+00      0.7786916544E+00
          0                 2           2             4    7     1      -0.4924773623E-03       4    7    1        -0.2649581073E-01      0.7619952317E-01
          0                 3           1             4    7     1       0.3354197769E-04       4    7    1         0.1854707274E-02      0.5304669504E-02

    ------------------------------------------------
       NWT REQUIRED            3 OUTER ITERATIONS 
       AND A TOTAL OF          5 INNER ITERATIONS.
    ------------------------------------------------

 NO OUTPUT CONTROL FOR STRESS PERIOD   29   TIME STEP   28
 
 SOLVING FOR HEAD 
                                                   Max.-Head-Change                         Max.-Flux-Residual
  Residual-Control   Outer-Iter.   Inner-Iter.     Column Row Layer    Maximum-Head-Change  Column Row Layer    Maximum-Flux-Residual          L2-NORM 
          0                 1           2             4    7     1       0.5030653149E-02       4    7    1         0.2631645079E+00      0.7721667113E+00
          0                 2           2             4    7     1      -0.4891530850E-03       4    7    1        -0.2631647839E-01      0.7556709750E-01
          0                 3           1             4    7     1       0.3331556847E-04       4    7    1         0.1842154031E-02      0.5262272027E-02

    ------------------------------------------------
       NWT REQUIRED            3 OUTER ITERATIONS 
       AND A TOTAL OF          5 INNER ITERATIONS.
    ------------------------------------------------

 NO OUTPUT CONTROL FOR STRESS PERIOD   29   TIME STEP   29
 
 SOLVING FOR HEAD 
                                                   Max.-Head-Change                         Max.-Flux-Residual
  Residual-Control   Outer-Iter.   Inner-Iter.     Column Row Layer    Maximum-Head-Change  Column Row Layer    Maximum-Flux-Residual          L2-NORM 
          0                 1           2             4   13     1       0.5119967620E-02       4   13    1         0.2953873227E+00      0.8933503533E+00
          0                 2           2             4   13     1      -0.4934987733E-03       4   13    1        -0.2927491367E-01      0.8735777366E-01
          0                 3           1             4   13     1       0.3317389750E-04       4   13    1         0.2023413793E-02      0.6038317492E-02

    ------------------------------------------------
       NWT REQUIRED            3 OUTER ITERATIONS 
       AND A TOTAL OF          5 INNER ITERATIONS.
    ------------------------------------------------

 NO OUTPUT CONTROL FOR STRESS PERIOD   29   TIME STEP   30



 STREAM LISTING     PERIOD     29   STEP       30

 LAYER ROW COL. STREAM  RCH.  FLOW INTO     FLOW TO   FLOW OUT OF   OVRLND.     DIRECT     STREAM       STREAM     STREAM     STREAM   STREAMBED  STREAMBED
                SEG.NO.  NO.  STRM. RCH.    AQUIFER    STRM. RCH.    RUNOFF     PRECIP       ET          HEAD       DEPTH      WIDTH   CONDCTNC.   GRADIENT

   1    1    1     1     1    3.7161E+01  2.9408E-01   3.6867E+01  0.000E+00  0.000E+00  0.000E+00  1.09436E+03  1.310E+00  1.516E+01  6.824E-02  1.437E+00
   1    2    2     1     2    3.6867E+01  4.5538E-01   3.6412E+01  0.000E+00  0.000E+00  0.000E+00  1.08937E+03  1.307E+00  1.511E+01  1.057E-01  1.436E+00
   1    3    3     1     3    3.6412E+01  3.8831E-01   3.6024E+01  0.000E+00  0.000E+00  0.000E+00  1.08372E+03  1.303E+00  1.504E+01  9.023E-02  1.434E+00
   1    3    4     1     4    3.6024E+01  3.5753E-01   3.5666E+01  0.000E+00  0.000E+00  0.000E+00  1.07871E+03  1.300E+00  1.498E+01  8.314E-02  1.433E+00
   1    4    5     2     1    3.3666E+01  3.4626E-01   3.3320E+01  0.000E+00  0.000E+00  0.000E+00  1.07337E+03  1.439E+00  1.200E+01  7.800E-02  1.480E+00
   1    5    6     2     2    3.3320E+01  2.6588E-01   3.3054E+01  0.000E+00  0.000E+00  0.000E+00  1.06794E+03  1.431E+00  1.200E+01  6.000E-02  1.477E+00
   1    6    6     2     3    3.3054E+01  2.6546E-01   3.2789E+01  0.000E+00  0.000E+00  0.000E+00  1.06322E+03  1.424E+00  1.200E+01  6.000E-02  1.475E+00
   1    7    6     2     4    3.2789E+01  2.6505E-01   3.2524E+01  0.000E+00  0.000E+00  0.000E+00  1.05849E+03  1.417E+00  1.200E+01  6.000E-02  1.472E+00
   1    8    6     2     5    3.2524E+01  2.6464E-01   3.2259E+01  0.000E+00  0.000E+00  0.000E+00  1.05377E+03  1.411E+00  1.200E+01  6.000E-02  1.470E+00
   1    3    5     3     1    2.0000E+00  2.8252E-01   1.7175E+00  0.000E+00  0.000E+00  0.000E+00  1.07555E+03  1.909E+00  9.636E+00  7.227E-02  1.955E+00
   1    3    6     3     2    1.7175E+00  2.4905E-01   1.4684E+00  0.000E+00  0.000E+00  0.000E+00  1.07264E+03  1.727E+00  8.909E+00  6.682E-02  1.864E+00
   1    3    7     3     3    1.4684E+00  1.9718E-01   1.2712E+00  0.000E+00  0.000E+00  0.000E+00  1.06987E+03  1.555E+00  8.218E+00  5.547E-02  1.777E+00
   1    4    8     3     4    1.2712E+00  2.2567E-01   1.0456E+00  0.000E+00  0.000E+00  0.000E+00  1.06682E+03  1.364E+00  7.455E+00  6.709E-02  1.682E+00
   1    5    8     3     5    1.0456E+00  1.5790E-01   8.8768E-01  0.000E+00  0.000E+00  0.000E+00  1.06362E+03  1.164E+00  6.655E+00  4.991E-02  1.582E+00
   1    6    8     3     6    8.8768E-01  5.5980E-02   8.3170E-01  0.000E+00  0.000E+00  0.000E+00  1.06158E+03  1.036E+00  6.145E+00  1.844E-02  1.518E+00
   1    5   10     4     1    1.0000E+01  9.0919E-02   9.9091E+00  0.000E+00  0.000E+00  0.000E+00  1.07836E+03  6.368E-01  1.000E+01  2.500E-02  1.212E+00
   1    5    9     4     2    9.9091E+00  1.8158E-01   9.7275E+00  0.000E+00  0.000E+00  0.000E+00  1.07154E+03  6.315E-01  1.000E+01  5.000E-02  1.211E+00
   1    6    8     4     3    9.7275E+00  1.2689E-01   9.6006E+00  0.000E+00  0.000E+00  0.000E+00  1.06381E+03  6.256E-01  1.000E+01  3.500E-02  1.209E+00
   1    6    8     5     1    1.0432E+01  2.2686E-01   1.0205E+01  0.000E+00  0.000E+00  0.000E+00  1.05868E+03  6.790E-01  1.542E+01  6.166E-02  1.226E+00
   1    7    7     5     2    1.0205E+01  2.7894E-01   9.9265E+00  0.000E+00  0.000E+00  0.000E+00  1.05417E+03  6.732E-01  1.519E+01  7.594E-02  1.224E+00
   1    8    7     5     3    9.9265E+00  1.9221E-01   9.7343E+00  0.000E+00  0.000E+00  0.000E+00  1.04992E+03  6.676E-01  1.497E+01  5.241E-02  1.223E+00
   1    8    6     5     4    9.7343E+00  1.3577E-01   9.5985E+00  0.000E+00  0.000E+00  0.000E+00  1.04691E+03  6.637E-01  1.482E+01  3.706E-02  1.221E+00
   1    9    6     6     1    4.1857E+01  2.7961E-01   4.1578E+01  0.000E+00  0.000E+00  0.000E+00  1.04439E+03  1.660E+00  1.200E+01  6.000E-02  1.553E+00
   1   10    7     6     2    4.1578E+01  2.7921E-01   4.1299E+01  0.000E+00  0.000E+00  0.000E+00  1.03984E+03  1.654E+00  1.200E+01  6.000E-02  1.551E+00
   1   11    7     6     3    4.1299E+01  2.7881E-01   4.1020E+01  0.000E+00  0.000E+00  0.000E+00  1.03528E+03  1.647E+00  1.200E+01  6.000E-02  1.549E+00
   1   12    7     6     4    4.1020E+01  2.7841E-01   4.0741E+01  0.000E+00  0.000E+00  0.000E+00  1.03073E+03  1.640E+00  1.200E+01  6.000E-02  1.547E+00
   1   13    7     6     5    4.0741E+01  1.2990E-02   4.0728E+01  0.000E+00  0.000E+00  0.000E+00  1.02755E+03  1.637E+00  1.200E+01  2.400E-02  1.804E-01
   1   14    9     7     1    1.5000E+02  1.3426E+00   1.4866E+02  0.000E+00  0.000E+00  0.000E+00  1.03987E+03  2.288E+00  5.529E+01  5.593E-01  8.002E-01
   1   13    8     7     2    1.4866E+02  1.8562E+00   1.4680E+02  0.000E+00  0.000E+00  0.000E+00  1.03478E+03  2.279E+00  5.526E+01  6.148E-01  1.006E+00
   1   13    7     7     3    1.4680E+02  1.4995E+00   1.4530E+02  0.000E+00  0.000E+00  0.000E+00  1.02969E+03  2.270E+00  5.522E+01  5.584E-01  8.950E-01
   1   13    6     8     1    1.8603E+02  1.0211E+00   1.8501E+02  0.000E+00  0.000E+00  0.000E+00  1.02493E+03  3.051E+00  4.423E+01  4.507E-01  7.551E-01
   1   13    5     8     2    1.8501E+02  2.4300E-01   1.8477E+02  0.000E+00  0.000E+00  0.000E+00  1.01867E+03  3.047E+00  4.418E+01  4.502E-01  1.799E-01
   1   13    4     8     3    1.8477E+02 -2.0731E+00   1.8684E+02  0.000E+00  0.000E+00  0.000E+00  1.01243E+03  3.052E+00  4.426E+01  4.510E+00 -1.532E-01
   1   13    3     8     4    1.8684E+02 -3.3755E+00   1.9021E+02  0.000E+00  0.000E+00  0.000E+00  1.00619E+03  3.069E+00  4.450E+01  4.535E+00 -2.481E-01
   1   13    2     8     5    1.9021E+02 -2.3297E+00   1.9254E+02  0.000E+00  0.000E+00  0.000E+00  9.99961E+02  3.086E+00  4.475E+01  4.560E+00 -1.703E-01
   1   13    1     8     6    1.9254E+02 -1.8880E+00   1.9443E+02  0.000E+00  0.000E+00  0.000E+00  9.94974E+02  3.099E+00  4.494E+01  2.747E+00 -2.291E-01
   1    8    6     9     1    0.0000E+00  0.0000E+00   0.0000E+00  0.000E+00  0.000E+00  0.000E+00  1.07875E+03  0.000E+00  4.000E+00  0.000E+00  1.000E+00
   1    8    5     9     2    0.0000E+00  0.0000E+00   0.0000E+00  0.000E+00  0.000E+00  0.000E+00  1.07825E+03  0.000E+00  4.000E+00  0.000E+00  1.000E+00





UNSATURATED ZONE PACKAGE VOLUMETRIC BUDGET FOR  TIME STEP    30 STRESS PERIOD   29
  ------------------------------------------------------------------------------



     CUMULATIVE VOLUMES      L**3       RATES FOR THIS TIME STEP      L**3/T
     ------------------                 ------------------------

           IN:                                      IN:
           ---                                      ---
        INFILTRATION =  1045608639.7604          INFILTRATION =           0.8475

          OUT:                                     OUT:
          ----                                     ----
              UZF ET =   870706763.0899                UZF ET =           0.8475
        UZF RECHARGE =     2811719.0821          UZF RECHARGE =           0.0249

            IN - OUT =   172090157.5884              IN - OUT =      -2.4944E-02

          STORAGE:                                 STORAGE:
          --------                                 --------
      STORAGE CHANGE =   172090624.1003        STORAGE CHANGE =      -2.4944E-02

 PERCENT DISCREPANCY IS DIFFERENCE BETWEEN IN-OUT MINUS CHANGE IN STORAGE
 DIVIDED BY THE AVERAGE OF IN AND OUT TIMES 100

 PERCENT DISCREPANCY =          -0.00     PERCENT DISCREPANCY =           0.00






1
  VOLUMETRIC BUDGET FOR AGRICULTURAL FIELDS AT  END OF TIME STEP   30, STRESS PERIOD  29
  ------------------------------------------------------------------------------

     CUMULATIVE VOLUMES      L**3       RATES FOR THIS TIME STEP      L**3/T
     ------------------                 ------------------------

           IN:                                      IN:
           ---                                      ---
               AG WELLS  =   391007552.0000                 AG WELLS  =           0.0000
      DIVERSION SEGMENTS =   592111808.0000        DIVERSION SEGMENTS =           0.0000
           GW IRRIGATION =           0.0000             GW IRRIGATION =           0.0000
           SW IRRIGATION =           0.0000             SW IRRIGATION =           0.0000
        SYSTEM LOSSES GW =           0.0000          SYSTEM LOSSES GW =           0.0000
        SYSTEM LOSSES SW =           0.0000          SYSTEM LOSSES SW =           0.0000

                TOTAL IN =   983119360.0000                  TOTAL IN =           0.0000

          OUT:                                     OUT:
          ----                                     ----
               AG WELLS  =           0.0000                 AG WELLS  =           0.0000
      DIVERSION SEGMENTS =           0.0000        DIVERSION SEGMENTS =           0.0000
           GW IRRIGATION =   391007552.0000             GW IRRIGATION =           0.0000
           SW IRRIGATION =   592123584.0000             SW IRRIGATION =           0.0000
        SYSTEM LOSSES GW =           0.0000          SYSTEM LOSSES GW =           0.0000
        SYSTEM LOSSES SW =           0.0000          SYSTEM LOSSES SW =           0.0000

               TOTAL OUT =   983131136.0000                 TOTAL OUT =           0.0000

                IN - OUT =      -11776.0000                  IN - OUT =           0.0000

     PERCENT DISCREPANCY =          -0.00         PERCENT DISCREPANCY =           0.00



1
  VOLUMETRIC BUDGET FOR ENTIRE MODEL AT END OF TIME STEP   30, STRESS PERIOD  29
  ------------------------------------------------------------------------------

     CUMULATIVE VOLUMES      L**3       RATES FOR THIS TIME STEP      L**3/T
     ------------------                 ------------------------

           IN:                                      IN:
           ---                                      ---
             STORAGE     =   658019712.0000               STORAGE     =           1.6896
       CONSTANT HEAD     =           0.0000         CONSTANT HEAD     =           0.0000
     HEAD DEP BOUNDS     =    21074208.0000       HEAD DEP BOUNDS     =           0.2862
      STREAM LEAKAGE     =   878862528.0000        STREAM LEAKAGE     =          12.3955
        UZF RECHARGE     =     2811719.2500          UZF RECHARGE     =       2.4944E-02
               GW ET     =           0.0000                 GW ET     =           0.0000
     SURFACE LEAKAGE     =           0.0000       SURFACE LEAKAGE     =           0.0000
           AG WELLS      =           0.0000             AG WELLS      =           0.0000

                TOTAL IN =  1560768128.0000                  TOTAL IN =          14.3963

          OUT:                                     OUT:
          ----                                     ----
             STORAGE     =   354742112.0000               STORAGE     =           4.4396
       CONSTANT HEAD     =           0.0000         CONSTANT HEAD     =           0.0000
     HEAD DEP BOUNDS     =    21431668.0000       HEAD DEP BOUNDS     =           0.2911
      STREAM LEAKAGE     =   791436864.0000        STREAM LEAKAGE     =           9.6663
        UZF RECHARGE     =           0.0000          UZF RECHARGE     =           0.0000
               GW ET     =     2162109.0000                 GW ET     =           0.0000
     SURFACE LEAKAGE     =           0.0000       SURFACE LEAKAGE     =           0.0000
           AG WELLS      =   391007552.0000             AG WELLS      =           0.0000

               TOTAL OUT =  1560780288.0000                 TOTAL OUT =          14.3971

                IN - OUT =      -12160.0000                  IN - OUT =      -7.1526E-04

     PERCENT DISCREPANCY =          -0.00         PERCENT DISCREPANCY =          -0.00






         TIME SUMMARY AT END OF TIME STEP   30 IN STRESS PERIOD   29
                    SECONDS     MINUTES      HOURS       DAYS        YEARS
                    -----------------------------------------------------------
   TIME STEP LENGTH  87667.      1461.1      24.352      1.0147     2.77799E-03
 STRESS PERIOD TIME 2.63000E+06  43833.      730.56      30.440     8.33397E-02
         TOTAL TIME 7.37266E+07 1.22878E+06  20480.      853.32      2.3363    
1
1
                            STRESS PERIOD NO.   30, LENGTH =   2630000.    
                            -----------------------------------------------

                              NUMBER OF TIME STEPS =    30

                               MULTIPLIER FOR DELT =     1.000

                            INITIAL TIME STEP SIZE =   87666.66    

 REUSING NON-PARAMETER GHB CELLS FROM LAST STRESS PERIOD

      2 GHB CELLS

 REUSING STREAM SEGMENT DATA FROM LAST STRESS PERIOD



            AREAL INFILTRATION RATE
 READING ON UNIT   19 WITH FORMAT: (FREE)              

            1           2           3           4           5           6           7           8           9          10
 ........................................................................................................................
   1   1.0000E-10  2.0000E-10   0.000       0.000       0.000       0.000       0.000       0.000       0.000       0.000    
   2   2.0000E-10  1.0000E-10  2.0000E-10   0.000       0.000      8.0000E-10  8.0000E-10  5.0000E-10   0.000       0.000    
   3    0.000      5.0000E-10  1.0000E-10  1.0000E-10  8.0000E-10  8.0000E-10  5.0000E-10  5.0000E-10   0.000       0.000    
   4   8.0000E-10  5.0000E-10  1.0000E-10  1.0000E-10  1.0000E-10  1.0000E-10  1.0000E-10  1.0000E-10  2.0000E-10   0.000    
   5   8.0000E-10  5.0000E-10  1.0000E-10  1.0000E-10  1.0000E-10  1.0000E-10  1.0000E-10  1.0000E-10  1.0000E-10  1.0000E-10
   6   8.0000E-10  5.0000E-10  5.0000E-10  2.0000E-10  2.0000E-10  1.0000E-10  1.0000E-10  1.0000E-10  1.0000E-10  5.0000E-10
   7   8.0000E-10  5.0000E-10  5.0000E-10  2.0000E-10  2.0000E-10  1.0000E-10  1.0000E-10  2.0000E-10  2.0000E-10   0.000    
   8    0.000      5.0000E-10  5.0000E-10  2.0000E-10  2.0000E-10  1.0000E-10  1.0000E-10  2.0000E-10  5.0000E-10   0.000    
   9    0.000      5.0000E-10  5.0000E-10  2.0000E-10  2.0000E-10  1.0000E-10  1.0000E-10  2.0000E-10  5.0000E-10   0.000    
  10    0.000      5.0000E-10  5.0000E-10  2.0000E-10  2.0000E-10  1.0000E-10  1.0000E-10  2.0000E-10  5.0000E-10  8.0000E-10
  11    0.000      1.0000E-10  1.0000E-10  1.0000E-10  1.0000E-10  1.0000E-10  1.0000E-10  2.0000E-10  5.0000E-10   0.000    
  12   1.0000E-10  1.0000E-10  1.0000E-10  1.0000E-10  1.0000E-10  1.0000E-10  1.0000E-10  1.0000E-10  2.0000E-10   0.000    
  13   1.0000E-10  1.0000E-10  2.0000E-10  2.0000E-10  2.0000E-10  2.0000E-10  2.0000E-10  1.0000E-10  1.0000E-10   0.000    
  14    0.000      2.0000E-10  5.0000E-10  5.0000E-10  5.0000E-10  5.0000E-10  5.0000E-10  2.0000E-10  1.0000E-10   0.000    
  15    0.000       0.000      8.0000E-10  8.0000E-10  8.0000E-10  8.0000E-10   0.000       0.000       0.000       0.000    

                  ET RATE =  5.000000E-08

 USING ET EXTINCTION DEPTH FROM PREVIOUS STRESS PERIOD. CURRENT PERIOD IS:      30

 USING EXTINCTION WATER CONTENT FROM PREVIOUS STRESS PERIOD. CURRENT PERIOD IS:      30

 USING AIR ENTRY PRESSURE FROM PREVIOUS STRESS PERIOD. CURRENT PERIOD IS:      30

 USING ROOT PRESSURE HEAD FROM PREVIOUS STRESS PERIOD. CURRENT PERIOD IS:      30

 USING ROOT ACTIVITY FROM PREVIOUS STRESS PERIOD. CURRENT PERIOD IS:      30

 PROCESSING AG STRESS PERIOD DATA

 READING AG STRESS PERIOD DATA

 READING IRRIGATION SEGMENT

 READING IRRIGATION WELL

 READING SUPPLEMENTAL WELL

 END PROCESSING AG STRESS PERIOD DATA OPTIONS
 
 SOLVING FOR HEAD 
                                                   Max.-Head-Change                         Max.-Flux-Residual
  Residual-Control   Outer-Iter.   Inner-Iter.     Column Row Layer    Maximum-Head-Change  Column Row Layer    Maximum-Flux-Residual          L2-NORM 
          0                 1           2             4   13     1       0.1932156917E-01       4   13    1         0.1116220520E+01      0.2088214059E+01
          0                 2           2             4    7     1      -0.2366456968E-01       4    7    1        -0.1270966045E+01      0.3131869885E+01
          0                 3           2             4    7     1       0.2416270091E-01       4    7    1         0.1333967096E+01      0.3267577232E+01
          0                 4           2             4    7     1      -0.9612465696E-03       4    7    1        -0.5455992331E-01      0.1258101118E+00
          0                 5           1             5    8     1      -0.4844954797E-04       5    8    1        -0.2926944756E-02      0.3381400354E-02

    ------------------------------------------------
       NWT REQUIRED            5 OUTER ITERATIONS 
       AND A TOTAL OF          9 INNER ITERATIONS.
    ------------------------------------------------

 NO OUTPUT CONTROL FOR STRESS PERIOD   30   TIME STEP    1
 
 SOLVING FOR HEAD 
                                                   Max.-Head-Change                         Max.-Flux-Residual
  Residual-Control   Outer-Iter.   Inner-Iter.     Column Row Layer    Maximum-Head-Change  Column Row Layer    Maximum-Flux-Residual          L2-NORM 
          0                 1           2             4   13     1       0.1799935842E-01       4   13    1         0.1039460314E+01      0.1989362174E+01
          0                 2           2             4   13     1      -0.1731975014E-02       4   13    1        -0.1028427915E+00      0.1933718529E+00
          0                 3           1             4   13     1       0.1161855540E-03       4   13    1         0.7093441691E-02      0.1306504187E-01
          0                 4           1             4   13     1      -0.4516132024E-05       4   13    1        -0.2835228297E-03      0.5049392480E-03

    ------------------------------------------------
       NWT REQUIRED            4 OUTER ITERATIONS 
       AND A TOTAL OF          6 INNER ITERATIONS.
    ------------------------------------------------

 NO OUTPUT CONTROL FOR STRESS PERIOD   30   TIME STEP    2
 
 SOLVING FOR HEAD 
                                                   Max.-Head-Change                         Max.-Flux-Residual
  Residual-Control   Outer-Iter.   Inner-Iter.     Column Row Layer    Maximum-Head-Change  Column Row Layer    Maximum-Flux-Residual          L2-NORM 
          0                 1           2             4   13     1       0.1621023069E-01       4   13    1         0.9356350306E+00      0.1856075025E+01
          0                 2           2             4    7     1      -0.2362810831E-01       4    7    1        -0.1269003759E+01      0.3123381444E+01
          0                 3           2             4    7     1       0.2413079331E-01       4    7    1         0.1332205631E+01      0.3263238923E+01
          0                 4           2             4    7     1      -0.9599771678E-03       4    7    1        -0.5448787768E-01      0.1256393082E+00
          0                 5           1             5    8     1      -0.4838058218E-04       5    8    1        -0.2922783700E-02      0.3376406103E-02

    ------------------------------------------------
       NWT REQUIRED            5 OUTER ITERATIONS 
       AND A TOTAL OF          9 INNER ITERATIONS.
    ------------------------------------------------

 NO OUTPUT CONTROL FOR STRESS PERIOD   30   TIME STEP    3
 
 SOLVING FOR HEAD 
                                                   Max.-Head-Change                         Max.-Flux-Residual
  Residual-Control   Outer-Iter.   Inner-Iter.     Column Row Layer    Maximum-Head-Change  Column Row Layer    Maximum-Flux-Residual          L2-NORM 
          0                 1           2             4   13     1       0.1520613053E-01       4   13    1         0.8773874662E+00      0.1779899115E+01
          0                 2           2             4   13     1      -0.1463144285E-02       4   13    1        -0.8680347701E-01      0.1731607407E+00
          0                 3           1             4   13     1       0.9813619167E-04       4   13    1         0.5986121825E-02      0.1172379927E-01

    ------------------------------------------------
       NWT REQUIRED            3 OUTER ITERATIONS 
       AND A TOTAL OF          5 INNER ITERATIONS.
    ------------------------------------------------

 NO OUTPUT CONTROL FOR STRESS PERIOD   30   TIME STEP    4
 
 SOLVING FOR HEAD 
                                                   Max.-Head-Change                         Max.-Flux-Residual
  Residual-Control   Outer-Iter.   Inner-Iter.     Column Row Layer    Maximum-Head-Change  Column Row Layer    Maximum-Flux-Residual          L2-NORM 
          0                 1           2             2   13     1       0.1374952208E-01       4   13    1         0.7904154715E+00      0.1669056558E+01
          0                 2           2             4    7     1      -0.2362266272E-01       4    7    1        -0.1268707535E+01      0.3119824804E+01
          0                 3           2             4    7     1       0.2413095638E-01       4    7    1         0.1332214698E+01      0.3263269466E+01
          0                 4           2             4    7     1      -0.9599840179E-03       4    7    1        -0.5448824854E-01      0.1256471837E+00
          0                 5           1             5    8     1      -0.4847413521E-04       5    8    1        -0.2928396533E-02      0.3381292012E-02

    ------------------------------------------------
       NWT REQUIRED            5 OUTER ITERATIONS 
       AND A TOTAL OF          9 INNER ITERATIONS.
    ------------------------------------------------

 NO OUTPUT CONTROL FOR STRESS PERIOD   30   TIME STEP    5
 
 SOLVING FOR HEAD 
                                                   Max.-Head-Change                         Max.-Flux-Residual
  Residual-Control   Outer-Iter.   Inner-Iter.     Column Row Layer    Maximum-Head-Change  Column Row Layer    Maximum-Flux-Residual          L2-NORM 
          0                 1           2             2   13     1       0.1311227895E-01       4   13    1         0.7470061928E+00      0.1610980629E+01
          0                 2           2             4   13     1      -0.1247609826E-02       3   13    1        -0.7500120676E-01      0.1605568018E+00
          0                 3           1             4   13     1       0.8367500390E-04       4   13    1         0.5095807946E-02      0.1089131568E-01

    ------------------------------------------------
       NWT REQUIRED            3 OUTER ITERATIONS 
       AND A TOTAL OF          5 INNER ITERATIONS.
    ------------------------------------------------

 NO OUTPUT CONTROL FOR STRESS PERIOD   30   TIME STEP    6
 
 SOLVING FOR HEAD 
                                                   Max.-Head-Change                         Max.-Flux-Residual
  Residual-Control   Outer-Iter.   Inner-Iter.     Column Row Layer    Maximum-Head-Change  Column Row Layer    Maximum-Flux-Residual          L2-NORM 
          0                 1           2             2   13     1       0.1206695355E-01       2   13    1         0.6833850311E+00      0.1516462877E+01
          0                 2           2             4    7     1      -0.2361707414E-01       4    7    1        -0.1268403991E+01      0.3116861419E+01
          0                 3           2             4    7     1       0.2413080123E-01       4    7    1         0.1332206206E+01      0.3263271752E+01
          0                 4           2             4    7     1      -0.9599783665E-03       4    7    1        -0.5448790117E-01      0.1256592517E+00
          0                 5           1             5    8     1      -0.4860615046E-04       5    8    1        -0.2936315382E-02      0.3388432181E-02

    ------------------------------------------------
       NWT REQUIRED            5 OUTER ITERATIONS 
       AND A TOTAL OF          9 INNER ITERATIONS.
    ------------------------------------------------

 NO OUTPUT CONTROL FOR STRESS PERIOD   30   TIME STEP    7
 
 SOLVING FOR HEAD 
                                                   Max.-Head-Change                         Max.-Flux-Residual
  Residual-Control   Outer-Iter.   Inner-Iter.     Column Row Layer    Maximum-Head-Change  Column Row Layer    Maximum-Flux-Residual          L2-NORM 
          0                 1           2             2   13     1       0.1155746635E-01       2   13    1         0.6545815441E+00      0.1468395972E+01
          0                 2           2             2   13     1      -0.1073027859E-02       4   13    1        -0.6348821052E-01      0.1431556057E+00
          0                 3           1             4   13     1       0.7185117208E-04       4   13    1         0.4377507178E-02      0.9741193892E-02

    ------------------------------------------------
       NWT REQUIRED            3 OUTER ITERATIONS 
       AND A TOTAL OF          5 INNER ITERATIONS.
    ------------------------------------------------

 NO OUTPUT CONTROL FOR STRESS PERIOD   30   TIME STEP    8
 
 SOLVING FOR HEAD 
                                                   Max.-Head-Change                         Max.-Flux-Residual
  Residual-Control   Outer-Iter.   Inner-Iter.     Column Row Layer    Maximum-Head-Change  Column Row Layer    Maximum-Flux-Residual          L2-NORM 
          0                 1           2             2   13     1       0.1063275024E-01       2   13    1         0.6022948126E+00      0.1383800870E+01
          0                 2           2             4    7     1      -0.2361170147E-01       4    7    1        -0.1268112367E+01      0.3114251438E+01
          0                 3           2             4    7     1       0.2413066107E-01       4    7    1         0.1332198548E+01      0.3263297623E+01
          0                 4           2             4    7     1      -0.9599734411E-03       4    7    1        -0.5448758794E-01      0.1256759383E+00
          0                 5           1             5    8     1      -0.4877025507E-04       5    8    1        -0.2946158400E-02      0.3396744836E-02

    ------------------------------------------------
       NWT REQUIRED            5 OUTER ITERATIONS 
       AND A TOTAL OF          9 INNER ITERATIONS.
    ------------------------------------------------

 NO OUTPUT CONTROL FOR STRESS PERIOD   30   TIME STEP    9
 
 SOLVING FOR HEAD 
                                                   Max.-Head-Change                         Max.-Flux-Residual
  Residual-Control   Outer-Iter.   Inner-Iter.     Column Row Layer    Maximum-Head-Change  Column Row Layer    Maximum-Flux-Residual          L2-NORM 
          0                 1           2             2   13     1       0.1023256097E-01       2   13    1         0.5796380488E+00      0.1349845724E+01
          0                 2           2             2   13     1      -0.9513326912E-03       2   13    1        -0.5539671281E-01      0.1317344394E+00
          0                 3           1             4   13     1       0.6231687536E-04       4   13    1         0.3795021738E-02      0.8987285031E-02

    ------------------------------------------------
       NWT REQUIRED            3 OUTER ITERATIONS 
       AND A TOTAL OF          5 INNER ITERATIONS.
    ------------------------------------------------

 NO OUTPUT CONTROL FOR STRESS PERIOD   30   TIME STEP   10
 
 SOLVING FOR HEAD 
                                                   Max.-Head-Change                         Max.-Flux-Residual
  Residual-Control   Outer-Iter.   Inner-Iter.     Column Row Layer    Maximum-Head-Change  Column Row Layer    Maximum-Flux-Residual          L2-NORM 
          0                 1           2             2   13     1       0.9411493735E-02       2   13    1         0.5331858710E+00      0.1280332435E+01
          0                 2           2             4    7     1      -0.2360652524E-01       4    7    1        -0.1267831650E+01      0.3112126128E+01
          0                 3           2             4    7     1       0.2413053239E-01       4    7    1         0.1332191534E+01      0.3263332569E+01
          0                 4           2             4    7     1      -0.9599690900E-03       4    7    1        -0.5448730106E-01      0.1256957609E+00
          0                 5           1             5    8     1      -0.4896346631E-04       5    8    1        -0.2957746689E-02      0.3407017945E-02

    ------------------------------------------------
       NWT REQUIRED            5 OUTER ITERATIONS 
       AND A TOTAL OF          9 INNER ITERATIONS.
    ------------------------------------------------

 NO OUTPUT CONTROL FOR STRESS PERIOD   30   TIME STEP   11
 
 SOLVING FOR HEAD 
                                                   Max.-Head-Change                         Max.-Flux-Residual
  Residual-Control   Outer-Iter.   Inner-Iter.     Column Row Layer    Maximum-Head-Change  Column Row Layer    Maximum-Flux-Residual          L2-NORM 
          0                 1           2             2   13     1       0.9105671091E-02       2   13    1         0.5158464774E+00      0.1256825280E+01
          0                 2           2             2   13     1      -0.8474563280E-03       2   13    1        -0.4935226917E-01      0.1227765025E+00
          0                 3           1             4   13     1       0.5458257614E-04       4   13    1         0.3322458666E-02      0.8396551516E-02

    ------------------------------------------------
       NWT REQUIRED            3 OUTER ITERATIONS 
       AND A TOTAL OF          5 INNER ITERATIONS.
    ------------------------------------------------

 NO OUTPUT CONTROL FOR STRESS PERIOD   30   TIME STEP   12
 
 SOLVING FOR HEAD 
                                                   Max.-Head-Change                         Max.-Flux-Residual
  Residual-Control   Outer-Iter.   Inner-Iter.     Column Row Layer    Maximum-Head-Change  Column Row Layer    Maximum-Flux-Residual          L2-NORM 
          0                 1           2             2   13     1       0.8373803805E-02       2   13    1         0.4744242801E+00      0.1199067173E+01
          0                 2           2             4    7     1      -0.2360147809E-01       4    7    1        -0.1267558054E+01      0.3110876472E+01
          0                 3           2             4    7     1       0.2413040838E-01       4    7    1         0.1332184780E+01      0.3263432956E+01
          0                 4           2             4    7     1      -0.9599650177E-03       4    7    1        -0.5448702481E-01      0.1257250619E+00
          0                 5           1             5    8     1      -0.4917959852E-04       5    8    1        -0.2970709405E-02      0.3418397759E-02

    ------------------------------------------------
       NWT REQUIRED            5 OUTER ITERATIONS 
       AND A TOTAL OF          9 INNER ITERATIONS.
    ------------------------------------------------

 NO OUTPUT CONTROL FOR STRESS PERIOD   30   TIME STEP   13
 
 SOLVING FOR HEAD 
                                                   Max.-Head-Change                         Max.-Flux-Residual
  Residual-Control   Outer-Iter.   Inner-Iter.     Column Row Layer    Maximum-Head-Change  Column Row Layer    Maximum-Flux-Residual          L2-NORM 
          0                 1           2             2   13     1       0.8149066812E-02       2   13    1         0.4616612285E+00      0.1183275441E+01
          0                 2           2             4   13     1      -0.8671434610E-03       4   13    1        -0.5344696664E-01      0.1200907340E+00
          0                 3           1             4   13     1       0.5817943795E-04       4   13    1         0.3686779672E-02      0.8223946468E-02

    ------------------------------------------------
       NWT REQUIRED            3 OUTER ITERATIONS 
       AND A TOTAL OF          5 INNER ITERATIONS.
    ------------------------------------------------

 NO OUTPUT CONTROL FOR STRESS PERIOD   30   TIME STEP   14
 
 SOLVING FOR HEAD 
                                                   Max.-Head-Change                         Max.-Flux-Residual
  Residual-Control   Outer-Iter.   Inner-Iter.     Column Row Layer    Maximum-Head-Change  Column Row Layer    Maximum-Flux-Residual          L2-NORM 
          0                 1           2             2   13     1       0.7493321106E-02       2   13    1         0.4245398926E+00      0.1131991009E+01
          0                 2           2             4    7     1      -0.2359657752E-01       4    7    1        -0.1267292519E+01      0.3108850617E+01
          0                 3           2             4    7     1       0.2413029240E-01       4    7    1         0.1332178472E+01      0.3263425481E+01
          0                 4           2             4    7     1      -0.9599613490E-03       4    7    1        -0.5448676679E-01      0.1257457729E+00
          0                 5           1             5    8     1      -0.4941654935E-04       5    8    1        -0.2984920470E-02      0.3428177843E-02

    ------------------------------------------------
       NWT REQUIRED            5 OUTER ITERATIONS 
       AND A TOTAL OF          9 INNER ITERATIONS.
    ------------------------------------------------

 NO OUTPUT CONTROL FOR STRESS PERIOD   30   TIME STEP   15
 
 SOLVING FOR HEAD 
                                                   Max.-Head-Change                         Max.-Flux-Residual
  Residual-Control   Outer-Iter.   Inner-Iter.     Column Row Layer    Maximum-Head-Change  Column Row Layer    Maximum-Flux-Residual          L2-NORM 
          0                 1           2             2   13     1       0.7337672850E-02       2   13    1         0.4156816625E+00      0.1121628710E+01
          0                 2           2             2   13     1      -0.6844308752E-03       2   13    1        -0.3985782995E-01      0.1097807120E+00
          0                 3           1             2   13     1       0.4391221269E-04       2   13    1         0.2628441409E-02      0.7543088598E-02

    ------------------------------------------------
       NWT REQUIRED            3 OUTER ITERATIONS 
       AND A TOTAL OF          5 INNER ITERATIONS.
    ------------------------------------------------

 NO OUTPUT CONTROL FOR STRESS PERIOD   30   TIME STEP   16
 
 SOLVING FOR HEAD 
                                                   Max.-Head-Change                         Max.-Flux-Residual
  Residual-Control   Outer-Iter.   Inner-Iter.     Column Row Layer    Maximum-Head-Change  Column Row Layer    Maximum-Flux-Residual          L2-NORM 
          0                 1           2             2   13     1       0.6746850143E-02       2   13    1         0.3822306295E+00      0.1076645644E+01
          0                 2           2             4    7     1      -0.2359183637E-01       4    7    1        -0.1267035863E+01      0.3107520314E+01
          0                 3           2             4    7     1       0.2413018314E-01       4    7    1         0.1332172547E+01      0.3263484560E+01
          0                 4           2             4    7     1      -0.9599580108E-03       4    7    1        -0.5448652440E-01      0.1257733553E+00
          0                 5           1             5    8     1      -0.4966919833E-04       5    8    1        -0.3000072849E-02      0.3443716068E-02

    ------------------------------------------------
       NWT REQUIRED            5 OUTER ITERATIONS 
       AND A TOTAL OF          9 INNER ITERATIONS.
    ------------------------------------------------

 NO OUTPUT CONTROL FOR STRESS PERIOD   30   TIME STEP   17
 
 SOLVING FOR HEAD 
                                                   Max.-Head-Change                         Max.-Flux-Residual
  Residual-Control   Outer-Iter.   Inner-Iter.     Column Row Layer    Maximum-Head-Change  Column Row Layer    Maximum-Flux-Residual          L2-NORM 
          0                 1           2             2   13     1       0.6650059308E-02       2   13    1         0.3767022737E+00      0.1071362258E+01
          0                 2           2             2   13     1      -0.6207321191E-03       2   13    1        -0.3614574804E-01      0.1049373923E+00
          0                 3           1             2   13     1       0.3986078685E-04       2   13    1         0.2385749453E-02      0.7223091569E-02

    ------------------------------------------------
       NWT REQUIRED            3 OUTER ITERATIONS 
       AND A TOTAL OF          5 INNER ITERATIONS.
    ------------------------------------------------

 NO OUTPUT CONTROL FOR STRESS PERIOD   30   TIME STEP   18
 
 SOLVING FOR HEAD 
                                                   Max.-Head-Change                         Max.-Flux-Residual
  Residual-Control   Outer-Iter.   Inner-Iter.     Column Row Layer    Maximum-Head-Change  Column Row Layer    Maximum-Flux-Residual          L2-NORM 
          0                 1           2             2   13     1       0.6114733321E-02       2   13    1         0.3463919292E+00      0.1033242551E+01
          0                 2           2             4    7     1      -0.2358722019E-01       4    7    1        -0.1266786036E+01      0.3106402900E+01
          0                 3           2             4    7     1       0.2413008039E-01       4    7    1         0.1332166980E+01      0.3263548031E+01
          0                 4           2             4    7     1      -0.9599549910E-03       4    7    1        -0.5448629675E-01      0.1258030596E+00
          0                 5           1             5    8     1      -0.4993625302E-04       5    8    1        -0.3016089023E-02      0.3457773779E-02

    ------------------------------------------------
       NWT REQUIRED            5 OUTER ITERATIONS 
       AND A TOTAL OF          9 INNER ITERATIONS.
    ------------------------------------------------

 NO OUTPUT CONTROL FOR STRESS PERIOD   30   TIME STEP   19
 
 SOLVING FOR HEAD 
                                                   Max.-Head-Change                         Max.-Flux-Residual
  Residual-Control   Outer-Iter.   Inner-Iter.     Column Row Layer    Maximum-Head-Change  Column Row Layer    Maximum-Flux-Residual          L2-NORM 
          0                 1           2             2   13     1       0.6068098048E-02       2   13    1         0.3437033247E+00      0.1031495217E+01
          0                 2           2             2   13     1      -0.5666306689E-03       2   13    1        -0.3299209192E-01      0.1010846301E+00
          0                 3           1             2   13     1       0.3640089117E-04       2   13    1         0.2178437428E-02      0.6966516262E-02

    ------------------------------------------------
       NWT REQUIRED            3 OUTER ITERATIONS 
       AND A TOTAL OF          5 INNER ITERATIONS.
    ------------------------------------------------

 NO OUTPUT CONTROL FOR STRESS PERIOD   30   TIME STEP   20
 
 SOLVING FOR HEAD 
                                                   Max.-Head-Change                         Max.-Flux-Residual
  Residual-Control   Outer-Iter.   Inner-Iter.     Column Row Layer    Maximum-Head-Change  Column Row Layer    Maximum-Flux-Residual          L2-NORM 
          0                 1           2             2   13     1       0.5580044103E-02       2   13    1         0.3160701032E+00      0.9985733866E+00
          0                 2           2             4    7     1      -0.2358271873E-01       4    7    1        -0.1266542581E+01      0.3105446449E+01
          0                 3           2             4    7     1       0.2412998127E-01       4    7    1         0.1332161621E+01      0.3263613687E+01
          0                 4           2             4    7     1      -0.9599521628E-03       4    7    1        -0.5448607753E-01      0.1258343297E+00
          0                 5           1             5    8     1      -0.5021516919E-04       5    8    1        -0.3032816467E-02      0.3472494586E-02

    ------------------------------------------------
       NWT REQUIRED            5 OUTER ITERATIONS 
       AND A TOTAL OF          9 INNER ITERATIONS.
    ------------------------------------------------

 NO OUTPUT CONTROL FOR STRESS PERIOD   30   TIME STEP   21
 
 SOLVING FOR HEAD 
                                                   Max.-Head-Change                         Max.-Flux-Residual
  Residual-Control   Outer-Iter.   Inner-Iter.     Column Row Layer    Maximum-Head-Change  Column Row Layer    Maximum-Flux-Residual          L2-NORM 
          0                 1           2             2   13     1       0.5576115013E-02       2   13    1         0.3158010164E+00      0.9993433616E+00
          0                 2           2             2   13     1      -0.5207358635E-03       2   13    1        -0.3031626144E-01      0.9798154464E-01
          0                 3           1             2   13     1       0.3345505931E-04       2   13    1         0.2001897440E-02      0.6762802824E-02

    ------------------------------------------------
       NWT REQUIRED            3 OUTER ITERATIONS 
       AND A TOTAL OF          5 INNER ITERATIONS.
    ------------------------------------------------

 NO OUTPUT CONTROL FOR STRESS PERIOD   30   TIME STEP   22
 
 SOLVING FOR HEAD 
                                                   Max.-Head-Change                         Max.-Flux-Residual
  Residual-Control   Outer-Iter.   Inner-Iter.     Column Row Layer    Maximum-Head-Change  Column Row Layer    Maximum-Flux-Residual          L2-NORM 
          0                 1           2             2   13     1       0.5128141810E-02       2   13    1         0.2904390398E+00      0.9703808240E+00
          0                 2           2             4    7     1      -0.2357835223E-01       4    7    1        -0.1266306562E+01      0.3104616503E+01
          0                 3           2             4    7     1       0.2412988933E-01       4    7    1         0.1332156663E+01      0.3263681980E+01
          0                 4           2             4    7     1      -0.9599496594E-03       4    7    1        -0.5448587474E-01      0.1258666459E+00
          0                 5           1             5    8     1      -0.5050369643E-04       5    8    1        -0.3050120225E-02      0.3488018161E-02

    ------------------------------------------------
       NWT REQUIRED            5 OUTER ITERATIONS 
       AND A TOTAL OF          9 INNER ITERATIONS.
    ------------------------------------------------

 NO OUTPUT CONTROL FOR STRESS PERIOD   30   TIME STEP   23
 
 SOLVING FOR HEAD 
                                                   Max.-Head-Change                         Max.-Flux-Residual
  Residual-Control   Outer-Iter.   Inner-Iter.     Column Row Layer    Maximum-Head-Change  Column Row Layer    Maximum-Flux-Residual          L2-NORM 
          0                 1           2             2   13     1       0.5160510602E-02       2   13    1         0.2922276339E+00      0.9729708506E+00
          0                 2           2             2   13     1      -0.4818371360E-03       2   13    1        -0.2804804482E-01      0.9543084520E-01
          0                 3           1             2   13     1       0.3095159832E-04       2   13    1         0.1851846326E-02      0.6593269654E-02

    ------------------------------------------------
       NWT REQUIRED            3 OUTER ITERATIONS 
       AND A TOTAL OF          5 INNER ITERATIONS.
    ------------------------------------------------

 NO OUTPUT CONTROL FOR STRESS PERIOD   30   TIME STEP   24
 
 SOLVING FOR HEAD 
                                                   Max.-Head-Change                         Max.-Flux-Residual
  Residual-Control   Outer-Iter.   Inner-Iter.     Column Row Layer    Maximum-Head-Change  Column Row Layer    Maximum-Flux-Residual          L2-NORM 
          0                 1           2             2   13     1       0.4746593458E-02       2   13    1         0.2687964547E+00      0.9470636250E+00
          0                 2           2             4    7     1      -0.2357408617E-01       4    7    1        -0.1266076043E+01      0.3103886168E+01
          0                 3           2             4    7     1       0.2412980218E-01       4    7    1         0.1332151971E+01      0.3263751875E+01
          0                 4           2             4    7     1      -0.9599473700E-03       4    7    1        -0.5448568283E-01      0.1258996077E+00
          0                 5           1             5    8     1      -0.5079799645E-04       5    8    1        -0.3067770145E-02      0.3502820734E-02

    ------------------------------------------------
       NWT REQUIRED            5 OUTER ITERATIONS 
       AND A TOTAL OF          9 INNER ITERATIONS.
    ------------------------------------------------

 NO OUTPUT CONTROL FOR STRESS PERIOD   30   TIME STEP   25
 
 SOLVING FOR HEAD 
                                                   Max.-Head-Change                         Max.-Flux-Residual
  Residual-Control   Outer-Iter.   Inner-Iter.     Column Row Layer    Maximum-Head-Change  Column Row Layer    Maximum-Flux-Residual          L2-NORM 
          0                 1           2             2   13     1       0.4809615324E-02       2   13    1         0.2723234290E+00      0.9509993833E+00
          0                 2           2             1    1     1      -0.4500363371E-03       2   13    1        -0.2612833276E-01      0.9330396513E-01
          0                 3           1             1    1     1       0.3064579953E-04       2   13    1         0.1724115790E-02      0.6451692411E-02

    ------------------------------------------------
       NWT REQUIRED            3 OUTER ITERATIONS 
       AND A TOTAL OF          5 INNER ITERATIONS.
    ------------------------------------------------

 NO OUTPUT CONTROL FOR STRESS PERIOD   30   TIME STEP   26
 
 SOLVING FOR HEAD 
                                                   Max.-Head-Change                         Max.-Flux-Residual
  Residual-Control   Outer-Iter.   Inner-Iter.     Column Row Layer    Maximum-Head-Change  Column Row Layer    Maximum-Flux-Residual          L2-NORM 
          0                 1           2             1    1     1       0.4621062467E-02       2   13    1         0.2505288219E+00      0.9274711255E+00
          0                 2           2             4    7     1      -0.2356991297E-01       4    7    1        -0.1265850633E+01      0.3103233254E+01
          0                 3           2             4    7     1       0.2412971929E-01       4    7    1         0.1332147518E+01      0.3263823530E+01
          0                 4           2             4    7     1      -0.9599452751E-03       4    7    1        -0.5448550066E-01      0.1259336897E+00
          0                 5           1             5    8     1      -0.5109840843E-04       5    8    1        -0.3085786552E-02      0.3518727764E-02

    ------------------------------------------------
       NWT REQUIRED            5 OUTER ITERATIONS 
       AND A TOTAL OF          9 INNER ITERATIONS.
    ------------------------------------------------

 NO OUTPUT CONTROL FOR STRESS PERIOD   30   TIME STEP   27
 
 SOLVING FOR HEAD 
                                                   Max.-Head-Change                         Max.-Flux-Residual
  Residual-Control   Outer-Iter.   Inner-Iter.     Column Row Layer    Maximum-Head-Change  Column Row Layer    Maximum-Flux-Residual          L2-NORM 
          0                 1           2             1    1     1       0.4615611138E-02       2   13    1         0.2555292068E+00      0.9324213544E+00
          0                 2           2             1    1     1      -0.4489737840E-03       2   13    1        -0.2450631674E-01      0.9150456751E-01
          0                 3           1             1    1     1       0.3057344354E-04       1    1    1         0.1677479444E-02      0.6331868739E-02

    ------------------------------------------------
       NWT REQUIRED            3 OUTER ITERATIONS 
       AND A TOTAL OF          5 INNER ITERATIONS.
    ------------------------------------------------

 NO OUTPUT CONTROL FOR STRESS PERIOD   30   TIME STEP   28
 
 SOLVING FOR HEAD 
                                                   Max.-Head-Change                         Max.-Flux-Residual
  Residual-Control   Outer-Iter.   Inner-Iter.     Column Row Layer    Maximum-Head-Change  Column Row Layer    Maximum-Flux-Residual          L2-NORM 
          0                 1           2             1    1     1       0.4610199882E-02       1    1    1         0.2393578896E+00      0.9107689783E+00
          0                 2           2             4    7     1      -0.2356582336E-01       4    7    1        -0.1265629789E+01      0.3102643128E+01
          0                 3           2             4    7     1       0.2412963572E-01       4    7    1         0.1332143026E+01      0.3263896019E+01
          0                 4           2             4    7     1      -0.9599431706E-03       4    7    1        -0.5448531694E-01      0.1259685932E+00
          0                 5           1             5    8     1      -0.5140315811E-04       5    8    1        -0.3104063076E-02      0.3534564419E-02

    ------------------------------------------------
       NWT REQUIRED            5 OUTER ITERATIONS 
       AND A TOTAL OF          9 INNER ITERATIONS.
    ------------------------------------------------

 NO OUTPUT CONTROL FOR STRESS PERIOD   30   TIME STEP   29
 
 SOLVING FOR HEAD 
                                                   Max.-Head-Change                         Max.-Flux-Residual
  Residual-Control   Outer-Iter.   Inner-Iter.     Column Row Layer    Maximum-Head-Change  Column Row Layer    Maximum-Flux-Residual          L2-NORM 
          0                 1           2             1    1     1       0.4604786089E-02       2   13    1         0.2413622440E+00      0.9165144772E+00
          0                 2           2             1    1     1      -0.4479207959E-03       1    1    1        -0.2390766678E-01      0.8996221942E-01
          0                 3           1             1    1     1       0.3050173935E-04       1    1    1         0.1673536985E-02      0.6228604448E-02

    ------------------------------------------------
       NWT REQUIRED            3 OUTER ITERATIONS 
       AND A TOTAL OF          5 INNER ITERATIONS.
    ------------------------------------------------

 NO OUTPUT CONTROL FOR STRESS PERIOD   30   TIME STEP   30



 STREAM LISTING     PERIOD     30   STEP       30

 LAYER ROW COL. STREAM  RCH.  FLOW INTO     FLOW TO   FLOW OUT OF   OVRLND.     DIRECT     STREAM       STREAM     STREAM     STREAM   STREAMBED  STREAMBED
                SEG.NO.  NO.  STRM. RCH.    AQUIFER    STRM. RCH.    RUNOFF     PRECIP       ET          HEAD       DEPTH      WIDTH   CONDCTNC.   GRADIENT

   1    1    1     1     1    7.4248E+01  4.1988E-01   7.3828E+01  0.000E+00  0.000E+00  0.000E+00  1.09474E+03  1.690E+00  1.990E+01  8.954E-02  1.563E+00
   1    2    2     1     2    7.3828E+01  6.5043E-01   7.3177E+01  0.000E+00  0.000E+00  0.000E+00  1.08974E+03  1.684E+00  1.984E+01  1.389E-01  1.561E+00
   1    3    3     1     3    7.3177E+01  5.5489E-01   7.2623E+01  0.000E+00  0.000E+00  0.000E+00  1.08410E+03  1.677E+00  1.977E+01  1.186E-01  1.559E+00
   1    3    4     1     4    7.2623E+01  5.1112E-01   7.2111E+01  0.000E+00  0.000E+00  0.000E+00  1.07908E+03  1.671E+00  1.972E+01  1.094E-01  1.557E+00
   1    4    5     2     1    7.0111E+01  4.0856E-01   6.9703E+01  0.000E+00  0.000E+00  0.000E+00  1.07417E+03  2.238E+00  1.200E+01  7.800E-02  1.746E+00
   1    5    6     2     2    6.9703E+01  3.1386E-01   6.9389E+01  0.000E+00  0.000E+00  0.000E+00  1.06874E+03  2.231E+00  1.200E+01  6.000E-02  1.744E+00
   1    6    6     2     3    6.9389E+01  3.1350E-01   6.9075E+01  0.000E+00  0.000E+00  0.000E+00  1.06402E+03  2.225E+00  1.200E+01  6.000E-02  1.742E+00
   1    7    6     2     4    6.9075E+01  3.1314E-01   6.8762E+01  0.000E+00  0.000E+00  0.000E+00  1.05929E+03  2.219E+00  1.200E+01  6.000E-02  1.740E+00
   1    8    6     2     5    6.8762E+01  3.1277E-01   6.8450E+01  0.000E+00  0.000E+00  0.000E+00  1.05457E+03  2.213E+00  1.200E+01  6.000E-02  1.738E+00
   1    3    5     3     1    2.0000E+00  2.8252E-01   1.7175E+00  0.000E+00  0.000E+00  0.000E+00  1.07555E+03  1.909E+00  9.636E+00  7.227E-02  1.955E+00
   1    3    6     3     2    1.7175E+00  2.4905E-01   1.4684E+00  0.000E+00  0.000E+00  0.000E+00  1.07264E+03  1.727E+00  8.909E+00  6.682E-02  1.864E+00
   1    3    7     3     3    1.4684E+00  1.9718E-01   1.2712E+00  0.000E+00  0.000E+00  0.000E+00  1.06987E+03  1.555E+00  8.218E+00  5.547E-02  1.777E+00
   1    4    8     3     4    1.2712E+00  2.2567E-01   1.0456E+00  0.000E+00  0.000E+00  0.000E+00  1.06682E+03  1.364E+00  7.455E+00  6.709E-02  1.682E+00
   1    5    8     3     5    1.0456E+00  1.5790E-01   8.8768E-01  0.000E+00  0.000E+00  0.000E+00  1.06362E+03  1.164E+00  6.655E+00  4.991E-02  1.582E+00
   1    6    8     3     6    8.8768E-01  5.5980E-02   8.3170E-01  0.000E+00  0.000E+00  0.000E+00  1.06158E+03  1.036E+00  6.145E+00  1.844E-02  1.518E+00
   1    5   10     4     1    1.0000E+01  9.0919E-02   9.9091E+00  0.000E+00  0.000E+00  0.000E+00  1.07836E+03  6.368E-01  1.000E+01  2.500E-02  1.212E+00
   1    5    9     4     2    9.9091E+00  1.8158E-01   9.7275E+00  0.000E+00  0.000E+00  0.000E+00  1.07154E+03  6.315E-01  1.000E+01  5.000E-02  1.211E+00
   1    6    8     4     3    9.7275E+00  1.2689E-01   9.6006E+00  0.000E+00  0.000E+00  0.000E+00  1.06381E+03  6.256E-01  1.000E+01  3.500E-02  1.209E+00
   1    6    8     5     1    1.0432E+01  2.2686E-01   1.0205E+01  0.000E+00  0.000E+00  0.000E+00  1.05868E+03  6.790E-01  1.542E+01  6.166E-02  1.226E+00
   1    7    7     5     2    1.0205E+01  2.7894E-01   9.9265E+00  0.000E+00  0.000E+00  0.000E+00  1.05417E+03  6.732E-01  1.519E+01  7.594E-02  1.224E+00
   1    8    7     5     3    9.9265E+00  1.9221E-01   9.7343E+00  0.000E+00  0.000E+00  0.000E+00  1.04992E+03  6.676E-01  1.497E+01  5.241E-02  1.223E+00
   1    8    6     5     4    9.7343E+00  1.3577E-01   9.5985E+00  0.000E+00  0.000E+00  0.000E+00  1.04691E+03  6.637E-01  1.482E+01  3.706E-02  1.221E+00
   1    9    6     6     1    7.8048E+01  3.2488E-01   7.7723E+01  0.000E+00  0.000E+00  0.000E+00  1.04514E+03  2.415E+00  1.200E+01  6.000E-02  1.805E+00
   1   10    7     6     2    7.7723E+01  3.2451E-01   7.7399E+01  0.000E+00  0.000E+00  0.000E+00  1.04059E+03  2.409E+00  1.200E+01  6.000E-02  1.803E+00
   1   11    7     6     3    7.7399E+01  3.2415E-01   7.7075E+01  0.000E+00  0.000E+00  0.000E+00  1.03604E+03  2.403E+00  1.200E+01  6.000E-02  1.801E+00
   1   12    7     6     4    7.7075E+01  3.2379E-01   7.6751E+01  0.000E+00  0.000E+00  0.000E+00  1.03149E+03  2.396E+00  1.200E+01  6.000E-02  1.799E+00
   1   13    7     6     5    7.6751E+01  3.1003E-02   7.6720E+01  0.000E+00  0.000E+00  0.000E+00  1.02830E+03  2.393E+00  1.200E+01  2.400E-02  4.306E-01
   1   14    9     7     1    1.5000E+02  1.3434E+00   1.4866E+02  0.000E+00  0.000E+00  0.000E+00  1.03987E+03  2.288E+00  5.529E+01  5.593E-01  8.006E-01
   1   13    8     7     2    1.4866E+02  1.8580E+00   1.4680E+02  0.000E+00  0.000E+00  0.000E+00  1.03478E+03  2.279E+00  5.526E+01  6.148E-01  1.007E+00
   1   13    7     7     3    1.4680E+02  1.4961E+00   1.4530E+02  0.000E+00  0.000E+00  0.000E+00  1.02969E+03  2.270E+00  5.522E+01  5.584E-01  8.930E-01
   1   13    6     8     1    2.2202E+02  1.1679E+00   2.2085E+02  0.000E+00  0.000E+00  0.000E+00  1.02513E+03  3.260E+00  4.727E+01  4.817E-01  8.082E-01
   1   13    5     8     2    2.2085E+02  3.3568E-01   2.2052E+02  0.000E+00  0.000E+00  0.000E+00  1.01888E+03  3.256E+00  4.721E+01  4.811E-01  2.326E-01
   1   13    4     8     3    2.2052E+02 -1.8946E+00   2.2241E+02  0.000E+00  0.000E+00  0.000E+00  1.01264E+03  3.260E+00  4.727E+01  4.817E+00 -1.311E-01
   1   13    3     8     4    2.2241E+02 -3.2163E+00   2.2563E+02  0.000E+00  0.000E+00  0.000E+00  1.00640E+03  3.274E+00  4.747E+01  4.838E+00 -2.216E-01
   1   13    2     8     5    2.2563E+02 -2.2803E+00   2.2791E+02  0.000E+00  0.000E+00  0.000E+00  1.00016E+03  3.289E+00  4.769E+01  4.860E+00 -1.564E-01
   1   13    1     8     6    2.2791E+02 -1.7788E+00   2.2969E+02  0.000E+00  0.000E+00  0.000E+00  9.95175E+02  3.300E+00  4.785E+01  2.926E+00 -2.027E-01
   1    8    6     9     1    6.6396E-07  0.0000E+00   6.6396E-07  0.000E+00  0.000E+00  0.000E+00  1.07875E+03  8.769E-05  4.000E+00  0.000E+00  1.000E+00
   1    8    5     9     2    6.6396E-07  0.0000E+00   6.6396E-07  0.000E+00  0.000E+00  0.000E+00  1.07825E+03  8.769E-05  4.000E+00  0.000E+00  1.000E+00





UNSATURATED ZONE PACKAGE VOLUMETRIC BUDGET FOR  TIME STEP    30 STRESS PERIOD   30
  ------------------------------------------------------------------------------



     CUMULATIVE VOLUMES      L**3       RATES FOR THIS TIME STEP      L**3/T
     ------------------                 ------------------------

           IN:                                      IN:
           ---                                      ---
        INFILTRATION =  1067461552.1528          INFILTRATION =           0.8475

          OUT:                                     OUT:
          ----                                     ----
              UZF ET =   892581787.0288                UZF ET =           8.3175
        UZF RECHARGE =     2875319.9385          UZF RECHARGE =           0.0230

            IN - OUT =   172004445.1855              IN - OUT =          -7.4930

          STORAGE:                                 STORAGE:
          --------                                 --------
      STORAGE CHANGE =   172005151.6117        STORAGE CHANGE =          -7.4928

 PERCENT DISCREPANCY IS DIFFERENCE BETWEEN IN-OUT MINUS CHANGE IN STORAGE
 DIVIDED BY THE AVERAGE OF IN AND OUT TIMES 100

 PERCENT DISCREPANCY =          -0.00     PERCENT DISCREPANCY =          -0.00






1
  VOLUMETRIC BUDGET FOR AGRICULTURAL FIELDS AT  END OF TIME STEP   30, STRESS PERIOD  30
  ------------------------------------------------------------------------------

     CUMULATIVE VOLUMES      L**3       RATES FOR THIS TIME STEP      L**3/T
     ------------------                 ------------------------

           IN:                                      IN:
           ---                                      ---
               AG WELLS  =   391007552.0000                 AG WELLS  =       2.2132E-07
      DIVERSION SEGMENTS =   611735424.0000        DIVERSION SEGMENTS =       6.6396E-07
           GW IRRIGATION =           0.0000             GW IRRIGATION =           0.0000
           SW IRRIGATION =           0.0000             SW IRRIGATION =           0.0000
        SYSTEM LOSSES GW =           0.0000          SYSTEM LOSSES GW =           0.0000
        SYSTEM LOSSES SW =           0.0000          SYSTEM LOSSES SW =           0.0000

                TOTAL IN =  1002742976.0000                  TOTAL IN =       8.8528E-07

          OUT:                                     OUT:
          ----                                     ----
               AG WELLS  =           0.0000                 AG WELLS  =           0.0000
      DIVERSION SEGMENTS =           0.0000        DIVERSION SEGMENTS =           0.0000
           GW IRRIGATION =   391007552.0000             GW IRRIGATION =       2.2132E-07
           SW IRRIGATION =   611747584.0000             SW IRRIGATION =       6.6397E-07
        SYSTEM LOSSES GW =           0.0000          SYSTEM LOSSES GW =           0.0000
        SYSTEM LOSSES SW =           0.0000          SYSTEM LOSSES SW =           0.0000

               TOTAL OUT =  1002755136.0000                 TOTAL OUT =       8.8529E-07

                IN - OUT =      -12160.0000                  IN - OUT =      -1.3188E-11

     PERCENT DISCREPANCY =          -0.00         PERCENT DISCREPANCY =          -0.00



1
  VOLUMETRIC BUDGET FOR ENTIRE MODEL AT END OF TIME STEP   30, STRESS PERIOD  30
  ------------------------------------------------------------------------------

     CUMULATIVE VOLUMES      L**3       RATES FOR THIS TIME STEP      L**3/T
     ------------------                 ------------------------

           IN:                                      IN:
           ---                                      ---
             STORAGE     =   661615744.0000               STORAGE     =           1.1904
       CONSTANT HEAD     =           0.0000         CONSTANT HEAD     =           0.0000
     HEAD DEP BOUNDS     =    21827040.0000       HEAD DEP BOUNDS     =           0.2863
      STREAM LEAKAGE     =   914773312.0000        STREAM LEAKAGE     =          13.7290
        UZF RECHARGE     =     2875320.5000          UZF RECHARGE     =       2.3012E-02
               GW ET     =           0.0000                 GW ET     =           0.0000
     SURFACE LEAKAGE     =           0.0000       SURFACE LEAKAGE     =           0.0000
           AG WELLS      =           0.0000             AG WELLS      =           0.0000

                TOTAL IN =  1601091456.0000                  TOTAL IN =          15.2287

          OUT:                                     OUT:
          ----                                     ----
             STORAGE     =   370134688.0000               STORAGE     =           5.5344
       CONSTANT HEAD     =           0.0000         CONSTANT HEAD     =           0.0000
     HEAD DEP BOUNDS     =    22204908.0000       HEAD DEP BOUNDS     =           0.2958
      STREAM LEAKAGE     =   815287360.0000        STREAM LEAKAGE     =           9.1701
        UZF RECHARGE     =           0.0000          UZF RECHARGE     =           0.0000
               GW ET     =     2471118.0000                 GW ET     =           0.2296
     SURFACE LEAKAGE     =           0.0000       SURFACE LEAKAGE     =           0.0000
           AG WELLS      =   391007552.0000             AG WELLS      =       2.2132E-07

               TOTAL OUT =  1601105664.0000                 TOTAL OUT =          15.2299

                IN - OUT =      -14208.0000                  IN - OUT =      -1.1826E-03

     PERCENT DISCREPANCY =          -0.00         PERCENT DISCREPANCY =          -0.01






         TIME SUMMARY AT END OF TIME STEP   30 IN STRESS PERIOD   30
                    SECONDS     MINUTES      HOURS       DAYS        YEARS
                    -----------------------------------------------------------
   TIME STEP LENGTH  87667.      1461.1      24.352      1.0147     2.77799E-03
 STRESS PERIOD TIME 2.63000E+06  43833.      730.56      30.440     8.33397E-02
         TOTAL TIME 7.63565E+07 1.27261E+06  21210.      883.76      2.4196    
1
1
                            STRESS PERIOD NO.   31, LENGTH =   2630000.    
                            -----------------------------------------------

                              NUMBER OF TIME STEPS =    30

                               MULTIPLIER FOR DELT =     1.000

                            INITIAL TIME STEP SIZE =   87666.66    

 REUSING NON-PARAMETER GHB CELLS FROM LAST STRESS PERIOD

      2 GHB CELLS

 REUSING STREAM SEGMENT DATA FROM LAST STRESS PERIOD



            AREAL INFILTRATION RATE
 READING ON UNIT   19 WITH FORMAT: (FREE)              

            1           2           3           4           5           6           7           8           9          10
 ........................................................................................................................
   1   1.0000E-10  2.0000E-10   0.000       0.000       0.000       0.000       0.000       0.000       0.000       0.000    
   2   2.0000E-10  1.0000E-10  2.0000E-10   0.000       0.000      8.0000E-10  8.0000E-10  5.0000E-10   0.000       0.000    
   3    0.000      5.0000E-10  1.0000E-10  1.0000E-10  8.0000E-10  8.0000E-10  5.0000E-10  5.0000E-10   0.000       0.000    
   4   8.0000E-10  5.0000E-10  1.0000E-10  1.0000E-10  1.0000E-10  1.0000E-10  1.0000E-10  1.0000E-10  2.0000E-10   0.000    
   5   8.0000E-10  5.0000E-10  1.0000E-10  1.0000E-10  1.0000E-10  1.0000E-10  1.0000E-10  1.0000E-10  1.0000E-10  1.0000E-10
   6   8.0000E-10  5.0000E-10  5.0000E-10  2.0000E-10  2.0000E-10  1.0000E-10  1.0000E-10  1.0000E-10  1.0000E-10  5.0000E-10
   7   8.0000E-10  5.0000E-10  5.0000E-10  2.0000E-10  2.0000E-10  1.0000E-10  1.0000E-10  2.0000E-10  2.0000E-10   0.000    
   8    0.000      5.0000E-10  5.0000E-10  2.0000E-10  2.0000E-10  1.0000E-10  1.0000E-10  2.0000E-10  5.0000E-10   0.000    
   9    0.000      5.0000E-10  5.0000E-10  2.0000E-10  2.0000E-10  1.0000E-10  1.0000E-10  2.0000E-10  5.0000E-10   0.000    
  10    0.000      5.0000E-10  5.0000E-10  2.0000E-10  2.0000E-10  1.0000E-10  1.0000E-10  2.0000E-10  5.0000E-10  8.0000E-10
  11    0.000      1.0000E-10  1.0000E-10  1.0000E-10  1.0000E-10  1.0000E-10  1.0000E-10  2.0000E-10  5.0000E-10   0.000    
  12   1.0000E-10  1.0000E-10  1.0000E-10  1.0000E-10  1.0000E-10  1.0000E-10  1.0000E-10  1.0000E-10  2.0000E-10   0.000    
  13   1.0000E-10  1.0000E-10  2.0000E-10  2.0000E-10  2.0000E-10  2.0000E-10  2.0000E-10  1.0000E-10  1.0000E-10   0.000    
  14    0.000      2.0000E-10  5.0000E-10  5.0000E-10  5.0000E-10  5.0000E-10  5.0000E-10  2.0000E-10  1.0000E-10   0.000    
  15    0.000       0.000      8.0000E-10  8.0000E-10  8.0000E-10  8.0000E-10   0.000       0.000       0.000       0.000    

                  ET RATE =  1.500000E-07

 USING ET EXTINCTION DEPTH FROM PREVIOUS STRESS PERIOD. CURRENT PERIOD IS:      31

 USING EXTINCTION WATER CONTENT FROM PREVIOUS STRESS PERIOD. CURRENT PERIOD IS:      31

 USING AIR ENTRY PRESSURE FROM PREVIOUS STRESS PERIOD. CURRENT PERIOD IS:      31

 USING ROOT PRESSURE HEAD FROM PREVIOUS STRESS PERIOD. CURRENT PERIOD IS:      31

 USING ROOT ACTIVITY FROM PREVIOUS STRESS PERIOD. CURRENT PERIOD IS:      31

 PROCESSING AG STRESS PERIOD DATA

 READING AG STRESS PERIOD DATA

 READING IRRIGATION SEGMENT

 READING IRRIGATION WELL

 READING SUPPLEMENTAL WELL

 END PROCESSING AG STRESS PERIOD DATA OPTIONS
 
 SOLVING FOR HEAD 
                                                   Max.-Head-Change                         Max.-Flux-Residual
  Residual-Control   Outer-Iter.   Inner-Iter.     Column Row Layer    Maximum-Head-Change  Column Row Layer    Maximum-Flux-Residual          L2-NORM 
          0                 1           2             1    1     1       0.4216022776E-02       3   13    1        -0.2690120728E+00      0.8403078921E+00
          0                 2           2             4    7     1      -0.7011161173E-01       4    7    1        -0.3765415237E+01      0.9247689900E+01
          0                 3           2             4    7     1       0.7258367109E-01       4    7    1         0.4007134746E+01      0.9835035558E+01
          0                 4           2             4    7     1      -0.2888313350E-02       4    6    1        -0.1654944775E+00      0.3927611142E+00
          0                 5           1             5    8     1      -0.2324664848E-03       5    8    1        -0.1400488848E-01      0.1532542819E-01
          0                 6           1             5    8     1      -0.2537152818E-04       5    8    1        -0.1522125566E-02      0.1531567566E-02

    ------------------------------------------------
       NWT REQUIRED            6 OUTER ITERATIONS 
       AND A TOTAL OF         10 INNER ITERATIONS.
    ------------------------------------------------

 NO OUTPUT CONTROL FOR STRESS PERIOD   31   TIME STEP    1
 
 SOLVING FOR HEAD 
                                                   Max.-Head-Change                         Max.-Flux-Residual
  Residual-Control   Outer-Iter.   Inner-Iter.     Column Row Layer    Maximum-Head-Change  Column Row Layer    Maximum-Flux-Residual          L2-NORM 
          0                 1           2             4    7     1       0.4163221679E-02       4    7    1         0.2174316092E+00      0.7676373945E+00
          0                 2           2             4    7     1      -0.4047931668E-03       4    7    1        -0.2174317697E-01      0.7547883874E-01
          0                 3           1             4    7     1       0.2757041497E-04       4    7    1         0.1522022882E-02      0.5267400693E-02

    ------------------------------------------------
       NWT REQUIRED            3 OUTER ITERATIONS 
       AND A TOTAL OF          5 INNER ITERATIONS.
    ------------------------------------------------

 NO OUTPUT CONTROL FOR STRESS PERIOD   31   TIME STEP    2
 
 SOLVING FOR HEAD 
                                                   Max.-Head-Change                         Max.-Flux-Residual
  Residual-Control   Outer-Iter.   Inner-Iter.     Column Row Layer    Maximum-Head-Change  Column Row Layer    Maximum-Flux-Residual          L2-NORM 
          0                 1           2             4    7     1       0.4142130002E-02       4    7    1         0.2163269910E+00      0.7573448174E+00
          0                 2           2             4    7     1      -0.7013428005E-01       4    7    1        -0.3766632839E+01      0.9251079483E+01
          0                 3           2             4    7     1       0.7261128394E-01       4    7    1         0.4008659546E+01      0.9838560914E+01
          0                 4           2             4    7     1      -0.2889420191E-02       4    6    1        -0.1655854610E+00      0.3917134587E+00
          0                 5           1             5    8     1      -0.2329773796E-03       5    8    1        -0.1403555962E-01      0.1520028891E-01
          0                 6           1             5    8     1      -0.2542726474E-04       5    8    1        -0.1525468909E-02      0.1532446860E-02

    ------------------------------------------------
       NWT REQUIRED            6 OUTER ITERATIONS 
       AND A TOTAL OF         10 INNER ITERATIONS.
    ------------------------------------------------

 NO OUTPUT CONTROL FOR STRESS PERIOD   31   TIME STEP    3
 
 SOLVING FOR HEAD 
                                                   Max.-Head-Change                         Max.-Flux-Residual
  Residual-Control   Outer-Iter.   Inner-Iter.     Column Row Layer    Maximum-Head-Change  Column Row Layer    Maximum-Flux-Residual          L2-NORM 
          0                 1           2             7   13     1       0.4451677799E-02       7   13    1         0.2406934829E+00      0.8054494764E+00
          0                 2           2             7   13     1      -0.4558556531E-02       7   13    1        -0.2529570898E+00      0.2642810015E+00
          0                 3           2             7   13     1       0.3103329843E-03       7   13    1         0.1770169440E-01      0.1848110383E-01
          0                 4           1             7   13     1      -0.1234279412E-04       7   13    1        -0.7236370582E-03      0.7567193128E-03

    ------------------------------------------------
       NWT REQUIRED            4 OUTER ITERATIONS 
       AND A TOTAL OF          7 INNER ITERATIONS.
    ------------------------------------------------

 NO OUTPUT CONTROL FOR STRESS PERIOD   31   TIME STEP    4
 
 SOLVING FOR HEAD 
                                                   Max.-Head-Change                         Max.-Flux-Residual
  Residual-Control   Outer-Iter.   Inner-Iter.     Column Row Layer    Maximum-Head-Change  Column Row Layer    Maximum-Flux-Residual          L2-NORM 
          0                 1           2             4    7     1       0.4100576788E-02       4    7    1         0.2141514695E+00      0.7614164632E+00
          0                 2           2             4    7     1      -0.7013022470E-01       4    7    1        -0.3766415286E+01      0.9253014809E+01
          0                 3           2             4    7     1       0.7261100131E-01       4    7    1         0.4008644318E+01      0.9841451703E+01
          0                 4           2             4    7     1      -0.2889416894E-02       4    6    1        -0.1656129046E+00      0.3912094296E+00
          0                 5           1             5    8     1      -0.2333792461E-03       5    8    1        -0.1405966873E-01      0.1495979727E-01
          0                 6           1             5    8     1      -0.2547110182E-04       5    8    1        -0.1528098412E-02      0.1529604474E-02

    ------------------------------------------------
       NWT REQUIRED            6 OUTER ITERATIONS 
       AND A TOTAL OF         10 INNER ITERATIONS.
    ------------------------------------------------

 NO OUTPUT CONTROL FOR STRESS PERIOD   31   TIME STEP    5
 
 SOLVING FOR HEAD 
                                                   Max.-Head-Change                         Max.-Flux-Residual
  Residual-Control   Outer-Iter.   Inner-Iter.     Column Row Layer    Maximum-Head-Change  Column Row Layer    Maximum-Flux-Residual          L2-NORM 
          0                 1           2             7   13     1       0.4430967898E-02       7   13    1         0.2395217260E+00      0.8466347406E+00
          0                 2           2             7   13     1      -0.4557283150E-02       7   13    1        -0.2528814799E+00      0.2640913285E+00
          0                 3           2             7   13     1       0.3102469874E-03       7   13    1         0.1769644608E-01      0.1846160379E-01
          0                 4           1             7   13     1      -0.1233910842E-04       7   13    1        -0.7234113373E-03      0.7539878734E-03

    ------------------------------------------------
       NWT REQUIRED            4 OUTER ITERATIONS 
       AND A TOTAL OF          7 INNER ITERATIONS.
    ------------------------------------------------

 NO OUTPUT CONTROL FOR STRESS PERIOD   31   TIME STEP    6
 
 SOLVING FOR HEAD 
                                                   Max.-Head-Change                         Max.-Flux-Residual
  Residual-Control   Outer-Iter.   Inner-Iter.     Column Row Layer    Maximum-Head-Change  Column Row Layer    Maximum-Flux-Residual          L2-NORM 
          0                 1           2             4    7     1       0.4059568650E-02       4   13    1         0.2184687028E+00      0.7971510950E+00
          0                 2           2             4    7     1      -0.7012622250E-01       4    7    1        -0.3766200515E+01      0.9254138026E+01
          0                 3           2             4    7     1       0.7261072231E-01       4    7    1         0.4008629285E+01      0.9840192693E+01
          0                 4           2             4    7     1      -0.2889413591E-02       4    6    1        -0.1656398550E+00      0.3911315205E+00
          0                 5           1             5    8     1      -0.2337720175E-03       5    8    1        -0.1408323237E-01      0.1497573784E-01
          0                 6           1             5    8     1      -0.2551394648E-04       5    8    1        -0.1530668415E-02      0.1532169263E-02

    ------------------------------------------------
       NWT REQUIRED            6 OUTER ITERATIONS 
       AND A TOTAL OF         10 INNER ITERATIONS.
    ------------------------------------------------

 NO OUTPUT CONTROL FOR STRESS PERIOD   31   TIME STEP    7
 
 SOLVING FOR HEAD 
                                                   Max.-Head-Change                         Max.-Flux-Residual
  Residual-Control   Outer-Iter.   Inner-Iter.     Column Row Layer    Maximum-Head-Change  Column Row Layer    Maximum-Flux-Residual          L2-NORM 
          0                 1           2             4   13     1       0.5035488637E-02       4   13    1         0.2902278706E+00      0.8956919047E+00
          0                 2           2             7   13     1      -0.4556487328E-02       7   13    1        -0.2528328979E+00      0.2652048311E+00
          0                 3           2             7   13     1       0.3101925996E-03       7   13    1         0.1769303076E-01      0.1852902792E-01
          0                 4           1             7   13     1      -0.1233692445E-04       7   13    1        -0.7232664059E-03      0.7560470258E-03

    ------------------------------------------------
       NWT REQUIRED            4 OUTER ITERATIONS 
       AND A TOTAL OF          7 INNER ITERATIONS.
    ------------------------------------------------

 NO OUTPUT CONTROL FOR STRESS PERIOD   31   TIME STEP    8
 
 SOLVING FOR HEAD 
                                                   Max.-Head-Change                         Max.-Flux-Residual
  Residual-Control   Outer-Iter.   Inner-Iter.     Column Row Layer    Maximum-Head-Change  Column Row Layer    Maximum-Flux-Residual          L2-NORM 
          0                 1           2             4   13     1       0.4622316376E-02       4   13    1         0.2665034308E+00      0.8368022343E+00
          0                 2           2             4    7     1      -0.7012226980E-01       4    7    1        -0.3765988445E+01      0.9254908715E+01
          0                 3           2             4    7     1       0.7261044669E-01       4    7    1         0.4008614441E+01      0.9840387058E+01
          0                 4           2             4    7     1      -0.2889410277E-02       4    6    1        -0.1656662787E+00      0.3912209569E+00
          0                 5           1             5    8     1      -0.2341584893E-03       5    8    1        -0.1410641816E-01      0.1499806345E-01
          0                 6           1             5    8     1      -0.2555610324E-04       5    8    1        -0.1533197174E-02      0.1534717181E-02

    ------------------------------------------------
       NWT REQUIRED            6 OUTER ITERATIONS 
       AND A TOTAL OF         10 INNER ITERATIONS.
    ------------------------------------------------

 NO OUTPUT CONTROL FOR STRESS PERIOD   31   TIME STEP    9
 
 SOLVING FOR HEAD 
                                                   Max.-Head-Change                         Max.-Flux-Residual
  Residual-Control   Outer-Iter.   Inner-Iter.     Column Row Layer    Maximum-Head-Change  Column Row Layer    Maximum-Flux-Residual          L2-NORM 
          0                 1           2             4   13     1       0.5793331476E-02       3   13    1         0.3430004301E+00      0.9403042504E+00
          0                 2           2             7   13     1      -0.4556067411E-02       7   13    1        -0.2528056546E+00      0.2663542419E+00
          0                 3           2             7   13     1       0.3101642066E-03       7   13    1         0.1769113976E-01      0.1859976005E-01
          0                 4           1             7   13     1      -0.1233605109E-04       7   13    1        -0.7232038274E-03      0.7583357875E-03

    ------------------------------------------------
       NWT REQUIRED            4 OUTER ITERATIONS 
       AND A TOTAL OF          7 INNER ITERATIONS.
    ------------------------------------------------

 NO OUTPUT CONTROL FOR STRESS PERIOD   31   TIME STEP   10
 
 SOLVING FOR HEAD 
                                                   Max.-Head-Change                         Max.-Flux-Residual
  Residual-Control   Outer-Iter.   Inner-Iter.     Column Row Layer    Maximum-Head-Change  Column Row Layer    Maximum-Flux-Residual          L2-NORM 
          0                 1           2             4   13     1       0.5305746427E-02       4   13    1         0.3059095426E+00      0.8732213875E+00
          0                 2           2             4    7     1      -0.7011839300E-01       4    7    1        -0.3765780479E+01      0.9255448923E+01
          0                 3           2             4    7     1       0.7261017628E-01       4    7    1         0.4008599884E+01      0.9840559829E+01
          0                 4           2             4    7     1      -0.2889407029E-02       4    6    1        -0.1656922114E+00      0.3913070818E+00
          0                 5           1             5    8     1      -0.2345380945E-03       5    8    1        -0.1412919215E-01      0.1501969417E-01
          0                 6           1             5    8     1      -0.2559751120E-04       5    8    1        -0.1535681028E-02      0.1537174089E-02

    ------------------------------------------------
       NWT REQUIRED            6 OUTER ITERATIONS 
       AND A TOTAL OF         10 INNER ITERATIONS.
    ------------------------------------------------

 NO OUTPUT CONTROL FOR STRESS PERIOD   31   TIME STEP   11
 
 SOLVING FOR HEAD 
                                                   Max.-Head-Change                         Max.-Flux-Residual
  Residual-Control   Outer-Iter.   Inner-Iter.     Column Row Layer    Maximum-Head-Change  Column Row Layer    Maximum-Flux-Residual          L2-NORM 
          0                 1           2             4   13     1       0.6412543168E-02       3   13    1         0.3849560677E+00      0.9776885477E+00
          0                 2           2             7   13     1      -0.4555992827E-02       7   13    1        -0.2527979407E+00      0.2673973351E+00
          0                 3           2             7   13     1       0.3101578870E-03       7   13    1         0.1769052985E-01      0.1866436797E-01
          0                 4           1             7   13     1      -0.1233511119E-04       7   13    1        -0.7231393856E-03      0.7605714987E-03

    ------------------------------------------------
       NWT REQUIRED            4 OUTER ITERATIONS 
       AND A TOTAL OF          7 INNER ITERATIONS.
    ------------------------------------------------

 NO OUTPUT CONTROL FOR STRESS PERIOD   31   TIME STEP   12
 
 SOLVING FOR HEAD 
                                                   Max.-Head-Change                         Max.-Flux-Residual
  Residual-Control   Outer-Iter.   Inner-Iter.     Column Row Layer    Maximum-Head-Change  Column Row Layer    Maximum-Flux-Residual          L2-NORM 
          0                 1           2             4   13     1       0.5863144772E-02       4   13    1         0.3381014280E+00      0.9041636481E+00
          0                 2           2             4    7     1      -0.7011456401E-01       4    7    1        -0.3765575062E+01      0.9255813401E+01
          0                 3           2             4    7     1       0.7260990911E-01       4    7    1         0.4008585505E+01      0.9840713257E+01
          0                 4           2             4    7     1      -0.2889403752E-02       4    6    1        -0.1657176412E+00      0.3913890751E+00
          0                 5           1             5    8     1      -0.2349067820E-03       5    8    1        -0.1415131139E-01      0.1504104705E-01
          0                 6           1             5    8     1      -0.2563772768E-04       5    8    1        -0.1538093435E-02      0.1539608646E-02

    ------------------------------------------------
       NWT REQUIRED            6 OUTER ITERATIONS 
       AND A TOTAL OF         10 INNER ITERATIONS.
    ------------------------------------------------

 NO OUTPUT CONTROL FOR STRESS PERIOD   31   TIME STEP   13
 
 SOLVING FOR HEAD 
                                                   Max.-Head-Change                         Max.-Flux-Residual
  Residual-Control   Outer-Iter.   Inner-Iter.     Column Row Layer    Maximum-Head-Change  Column Row Layer    Maximum-Flux-Residual          L2-NORM 
          0                 1           2             4   13     1       0.6916891054E-02       3   13    1         0.4130774109E+00      0.1008126683E+01
          0                 2           2             7   13     1      -0.4556191580E-02       7   13    1        -0.2528057439E+00      0.2682967019E+00
          0                 3           2             7   13     1       0.3101725461E-03       7   13    1         0.1769114416E-01      0.1871970625E-01
          0                 4           1             7   13     1      -0.1233592975E-04       7   13    1        -0.7231777688E-03      0.7621551357E-03

    ------------------------------------------------
       NWT REQUIRED            4 OUTER ITERATIONS 
       AND A TOTAL OF          7 INNER ITERATIONS.
    ------------------------------------------------

 NO OUTPUT CONTROL FOR STRESS PERIOD   31   TIME STEP   14
 
 SOLVING FOR HEAD 
                                                   Max.-Head-Change                         Max.-Flux-Residual
  Residual-Control   Outer-Iter.   Inner-Iter.     Column Row Layer    Maximum-Head-Change  Column Row Layer    Maximum-Flux-Residual          L2-NORM 
          0                 1           2             4   13     1       0.6316633793E-02       4   13    1         0.3643222514E+00      0.9296878869E+00
          0                 2           2             4    7     1      -0.7011078180E-01       4    7    1        -0.3765372133E+01      0.9256044581E+01
          0                 3           2             4    7     1       0.7260964512E-01       4    7    1         0.4008571301E+01      0.9840851318E+01
          0                 4           2             4    7     1      -0.2889400454E-02       4    6    1        -0.1657425797E+00      0.3909124695E+00
          0                 5           1             5    8     1      -0.2352665911E-03       5    8    1        -0.1417289816E-01      0.1504003600E-01
          0                 6           1             5    8     1      -0.2567697533E-04       5    8    1        -0.1540447736E-02      0.1541914964E-02

    ------------------------------------------------
       NWT REQUIRED            6 OUTER ITERATIONS 
       AND A TOTAL OF         10 INNER ITERATIONS.
    ------------------------------------------------

 NO OUTPUT CONTROL FOR STRESS PERIOD   31   TIME STEP   15
 
 SOLVING FOR HEAD 
                                                   Max.-Head-Change                         Max.-Flux-Residual
  Residual-Control   Outer-Iter.   Inner-Iter.     Column Row Layer    Maximum-Head-Change  Column Row Layer    Maximum-Flux-Residual          L2-NORM 
          0                 1           2             3   13     1       0.7473980613E-02       3   13    1         0.4258011291E+00      0.1030021641E+01
          0                 2           2             7   13     1      -0.4556658111E-02       7   13    1        -0.2528286963E+00      0.2796283995E+00
          0                 3           2             7   13     1       0.3102051021E-03       7   13    1         0.1769279909E-01      0.1946625060E-01
          0                 4           1             7   13     1      -0.1233878192E-04       7   13    1        -0.7233396445E-03      0.7897425991E-03

    ------------------------------------------------
       NWT REQUIRED            4 OUTER ITERATIONS 
       AND A TOTAL OF          7 INNER ITERATIONS.
    ------------------------------------------------

 NO OUTPUT CONTROL FOR STRESS PERIOD   31   TIME STEP   16
 
 SOLVING FOR HEAD 
                                                   Max.-Head-Change                         Max.-Flux-Residual
  Residual-Control   Outer-Iter.   Inner-Iter.     Column Row Layer    Maximum-Head-Change  Column Row Layer    Maximum-Flux-Residual          L2-NORM 
          0                 1           2             4   13     1       0.6684472945E-02       4   13    1         0.3855956284E+00      0.9509457304E+00
          0                 2           2             4    7     1      -0.7010707157E-01       4    7    1        -0.3765173123E+01      0.9256180825E+01
          0                 3           2             4    7     1       0.7260938607E-01       4    7    1         0.4008557371E+01      0.9840976633E+01
          0                 4           2             4    7     1      -0.2889397207E-02       4    6    1        -0.1657670431E+00      0.3906843311E+00
          0                 5           1             5    8     1      -0.2356174966E-03       5    8    1        -0.1419395095E-01      0.1504980571E-01
          0                 6           1             5    8     1      -0.2571525130E-04       5    8    1        -0.1542743786E-02      0.1544201640E-02

    ------------------------------------------------
       NWT REQUIRED            6 OUTER ITERATIONS 
       AND A TOTAL OF         10 INNER ITERATIONS.
    ------------------------------------------------

 NO OUTPUT CONTROL FOR STRESS PERIOD   31   TIME STEP   17
 
 SOLVING FOR HEAD 
                                                   Max.-Head-Change                         Max.-Flux-Residual
  Residual-Control   Outer-Iter.   Inner-Iter.     Column Row Layer    Maximum-Head-Change  Column Row Layer    Maximum-Flux-Residual          L2-NORM 
          0                 1           2             4   13     1       0.7662154534E-02       4   13    1         0.4415495834E+00      0.1046404086E+01
          0                 2           2             7   13     1      -0.4557321913E-02       7   13    1        -0.2528628339E+00      0.2772343238E+00
          0                 3           2             7   13     1       0.3102497217E-03       7   13    1         0.1769515624E-01      0.1930329290E-01
          0                 4           1             7   13     1      -0.1233852288E-04       7   13    1        -0.7233165252E-03      0.7837336630E-03

    ------------------------------------------------
       NWT REQUIRED            4 OUTER ITERATIONS 
       AND A TOTAL OF          7 INNER ITERATIONS.
    ------------------------------------------------

 NO OUTPUT CONTROL FOR STRESS PERIOD   31   TIME STEP   18
 
 SOLVING FOR HEAD 
                                                   Max.-Head-Change                         Max.-Flux-Residual
  Residual-Control   Outer-Iter.   Inner-Iter.     Column Row Layer    Maximum-Head-Change  Column Row Layer    Maximum-Flux-Residual          L2-NORM 
          0                 1           2             4   13     1       0.6982351267E-02       4   13    1         0.4028165701E+00      0.9687735471E+00
          0                 2           2             4    7     1      -0.7010343083E-01       4    7    1        -0.3764977878E+01      0.9256245794E+01
          0                 3           2             4    7     1       0.7260913177E-01       4    7    1         0.4008543704E+01      0.9841091654E+01
          0                 4           2             4    7     1      -0.2889394006E-02       4    6    1        -0.1657910356E+00      0.3906953130E+00
          0                 5           1             5    8     1      -0.2359598296E-03       5    8    1        -0.1421448964E-01      0.1506881567E-01
          0                 6           1             5    8     1      -0.2575259183E-04       5    8    1        -0.1544983739E-02      0.1546438105E-02

    ------------------------------------------------
       NWT REQUIRED            6 OUTER ITERATIONS 
       AND A TOTAL OF         10 INNER ITERATIONS.
    ------------------------------------------------

 NO OUTPUT CONTROL FOR STRESS PERIOD   31   TIME STEP   19
 
 SOLVING FOR HEAD 
                                                   Max.-Head-Change                         Max.-Flux-Residual
  Residual-Control   Outer-Iter.   Inner-Iter.     Column Row Layer    Maximum-Head-Change  Column Row Layer    Maximum-Flux-Residual          L2-NORM 
          0                 1           2             4   13     1       0.7929396179E-02       4   13    1         0.4570603757E+00      0.1060105686E+01
          0                 2           2             7   13     1      -0.4558168456E-02       7   13    1        -0.2529073237E+00      0.2755899919E+00
          0                 3           2             7   13     1       0.3103073850E-03       7   13    1         0.1769827392E-01      0.1919064022E-01
          0                 4           1             7   13     1      -0.1234216137E-04       7   13    1        -0.7235218941E-03      0.7791774404E-03

    ------------------------------------------------
       NWT REQUIRED            4 OUTER ITERATIONS 
       AND A TOTAL OF          7 INNER ITERATIONS.
    ------------------------------------------------

 NO OUTPUT CONTROL FOR STRESS PERIOD   31   TIME STEP   20
 
 SOLVING FOR HEAD 
                                                   Max.-Head-Change                         Max.-Flux-Residual
  Residual-Control   Outer-Iter.   Inner-Iter.     Column Row Layer    Maximum-Head-Change  Column Row Layer    Maximum-Flux-Residual          L2-NORM 
          0                 1           2             4   13     1       0.7223976460E-02       4   13    1         0.4167789247E+00      0.9835973571E+00
          0                 2           2             4    7     1      -0.7009983186E-01       4    7    1        -0.3764784856E+01      0.9256251941E+01
          0                 3           2             4    7     1       0.7260888031E-01       4    7    1         0.4008530193E+01      0.9841196893E+01
          0                 4           2             4    7     1      -0.2889390770E-02       4    6    1        -0.1658145558E+00      0.3908323817E+00
          0                 5           1             5    8     1      -0.2362919680E-03       5    8    1        -0.1423441691E-01      0.1509806355E-01
          0                 6           1             5    8     1      -0.2578881986E-04       5    8    1        -0.1547156976E-02      0.1548779601E-02

    ------------------------------------------------
       NWT REQUIRED            6 OUTER ITERATIONS 
       AND A TOTAL OF         10 INNER ITERATIONS.
    ------------------------------------------------

 NO OUTPUT CONTROL FOR STRESS PERIOD   31   TIME STEP   21
 
 SOLVING FOR HEAD 
                                                   Max.-Head-Change                         Max.-Flux-Residual
  Residual-Control   Outer-Iter.   Inner-Iter.     Column Row Layer    Maximum-Head-Change  Column Row Layer    Maximum-Flux-Residual          L2-NORM 
          0                 1           2             4   13     1       0.8146208362E-02       4   13    1         0.4696375345E+00      0.1071496425E+01
          0                 2           2             7   13     1      -0.4559186140E-02       7   13    1        -0.2529615057E+00      0.2744545505E+00
          0                 3           2             7   13     1       0.3103758129E-03       7   13    1         0.1770201962E-01      0.1911386047E-01
          0                 4           1             7   13     1      -0.1234407641E-04       7   13    1        -0.7236287006E-03      0.7758507760E-03

    ------------------------------------------------
       NWT REQUIRED            4 OUTER ITERATIONS 
       AND A TOTAL OF          7 INNER ITERATIONS.
    ------------------------------------------------

 NO OUTPUT CONTROL FOR STRESS PERIOD   31   TIME STEP   22
 
 SOLVING FOR HEAD 
                                                   Max.-Head-Change                         Max.-Flux-Residual
  Residual-Control   Outer-Iter.   Inner-Iter.     Column Row Layer    Maximum-Head-Change  Column Row Layer    Maximum-Flux-Residual          L2-NORM 
          0                 1           2             4   13     1       0.7420168461E-02       4   13    1         0.4281096227E+00      0.9958462439E+00
          0                 2           2             4    7     1      -0.7009627393E-01       4    7    1        -0.3764594009E+01      0.9256210602E+01
          0                 3           2             4    7     1       0.7260863164E-01       4    7    1         0.4008516834E+01      0.9841294790E+01
          0                 4           2             4    7     1      -0.2889387514E-02       4    6    1        -0.1658376124E+00      0.3910308533E+00
          0                 5           1             5    8     1      -0.2366179979E-03       5    8    1        -0.1425397783E-01      0.1513433768E-01
          0                 6           1             5    8     1      -0.2582438141E-04       5    8    1        -0.1549290249E-02      0.1551190866E-02

    ------------------------------------------------
       NWT REQUIRED            6 OUTER ITERATIONS 
       AND A TOTAL OF         10 INNER ITERATIONS.
    ------------------------------------------------

 NO OUTPUT CONTROL FOR STRESS PERIOD   31   TIME STEP   23
 
 SOLVING FOR HEAD 
                                                   Max.-Head-Change                         Max.-Flux-Residual
  Residual-Control   Outer-Iter.   Inner-Iter.     Column Row Layer    Maximum-Head-Change  Column Row Layer    Maximum-Flux-Residual          L2-NORM 
          0                 1           2             4   13     1       0.8322331260E-02       4   13    1         0.4798480722E+00      0.1080900497E+01
          0                 2           2             7   13     1      -0.4560321814E-02       7   13    1        -0.2530223936E+00      0.2736640497E+00
          0                 3           2             7   13     1       0.3104541335E-03       7   13    1         0.1770633879E-01      0.1906072829E-01
          0                 4           1             7   13     1      -0.1234782358E-04       7   13    1        -0.7238410467E-03      0.7740945604E-03

    ------------------------------------------------
       NWT REQUIRED            4 OUTER ITERATIONS 
       AND A TOTAL OF          7 INNER ITERATIONS.
    ------------------------------------------------

 NO OUTPUT CONTROL FOR STRESS PERIOD   31   TIME STEP   24
 
 SOLVING FOR HEAD 
                                                   Max.-Head-Change                         Max.-Flux-Residual
  Residual-Control   Outer-Iter.   Inner-Iter.     Column Row Layer    Maximum-Head-Change  Column Row Layer    Maximum-Flux-Residual          L2-NORM 
          0                 1           2             4   13     1       0.7579654521E-02       4   13    1         0.4373144721E+00      0.1005904197E+01
          0                 2           2             4    7     1      -0.7009278310E-01       4    7    1        -0.3764406805E+01      0.9256131564E+01
          0                 3           2             4    7     1       0.7260838757E-01       4    7    1         0.4008503731E+01      0.9841386178E+01
          0                 4           2             4    7     1      -0.2889384306E-02       4    6    1        -0.1658602133E+00      0.3912537636E+00
          0                 5           1             5    8     1      -0.2369363620E-03       5    8    1        -0.1427307902E-01      0.1517319547E-01
          0                 6           1             5    8     1      -0.2585910654E-04       5    8    1        -0.1551373369E-02      0.1553606656E-02

    ------------------------------------------------
       NWT REQUIRED            6 OUTER ITERATIONS 
       AND A TOTAL OF         10 INNER ITERATIONS.
    ------------------------------------------------

 NO OUTPUT CONTROL FOR STRESS PERIOD   31   TIME STEP   25
 
 SOLVING FOR HEAD 
                                                   Max.-Head-Change                         Max.-Flux-Residual
  Residual-Control   Outer-Iter.   Inner-Iter.     Column Row Layer    Maximum-Head-Change  Column Row Layer    Maximum-Flux-Residual          L2-NORM 
          0                 1           2             4   13     1       0.8465631912E-02       4   13    1         0.4881499237E+00      0.1088609837E+01
          0                 2           2             7   13     1      -0.4561559075E-02       7   13    1        -0.2530890712E+00      0.2731086621E+00
          0                 3           2             7   13     1       0.3105378025E-03       7   13    1         0.1771097657E-01      0.1902315864E-01
          0                 4           1             7   13     1      -0.1235105337E-04       7   13    1        -0.7240232112E-03      0.7725909378E-03

    ------------------------------------------------
       NWT REQUIRED            4 OUTER ITERATIONS 
       AND A TOTAL OF          7 INNER ITERATIONS.
    ------------------------------------------------

 NO OUTPUT CONTROL FOR STRESS PERIOD   31   TIME STEP   26
 
 SOLVING FOR HEAD 
                                                   Max.-Head-Change                         Max.-Flux-Residual
  Residual-Control   Outer-Iter.   Inner-Iter.     Column Row Layer    Maximum-Head-Change  Column Row Layer    Maximum-Flux-Residual          L2-NORM 
          0                 1           2             4   13     1       0.7709471954E-02       4   13    1         0.4448011745E+00      0.1014106508E+01
          0                 2           2             4    7     1      -0.7008933173E-01       4    7    1        -0.3764221692E+01      0.9256021101E+01
          0                 3           2             4    7     1       0.7260814618E-01       4    7    1         0.4008490773E+01      0.9841516638E+01
          0                 4           2             4    7     1      -0.2889381067E-02       4    6    1        -0.1658823746E+00      0.3918853513E+00
          0                 5           1             5    8     1      -0.2372456222E-03       5    8    1        -0.1429163422E-01      0.1517300449E-01
          0                 6           1             5    8     1      -0.2589283855E-04       5    8    1        -0.1553396923E-02      0.1554858031E-02

    ------------------------------------------------
       NWT REQUIRED            6 OUTER ITERATIONS 
       AND A TOTAL OF         10 INNER ITERATIONS.
    ------------------------------------------------

 NO OUTPUT CONTROL FOR STRESS PERIOD   31   TIME STEP   27
 
 SOLVING FOR HEAD 
                                                   Max.-Head-Change                         Max.-Flux-Residual
  Residual-Control   Outer-Iter.   Inner-Iter.     Column Row Layer    Maximum-Head-Change  Column Row Layer    Maximum-Flux-Residual          L2-NORM 
          0                 1           2             4   13     1       0.8582430972E-02       4   13    1         0.4949110255E+00      0.1094895062E+01
          0                 2           2             7   13     1      -0.4562890487E-02       7   13    1        -0.2531610865E+00      0.2727181778E+00
          0                 3           2             7   13     1       0.3106279537E-03       7   13    1         0.1771599001E-01      0.1899709446E-01
          0                 4           1             7   13     1      -0.1235467574E-04       7   13    1        -0.7242333143E-03      0.7715179080E-03

    ------------------------------------------------
       NWT REQUIRED            4 OUTER ITERATIONS 
       AND A TOTAL OF          7 INNER ITERATIONS.
    ------------------------------------------------

 NO OUTPUT CONTROL FOR STRESS PERIOD   31   TIME STEP   28
 
 SOLVING FOR HEAD 
                                                   Max.-Head-Change                         Max.-Flux-Residual
  Residual-Control   Outer-Iter.   Inner-Iter.     Column Row Layer    Maximum-Head-Change  Column Row Layer    Maximum-Flux-Residual          L2-NORM 
          0                 1           2             4   13     1       0.7815418714E-02       4   13    1         0.4509059073E+00      0.1020764317E+01
          0                 2           2             4    7     1      -0.7008594540E-01       4    7    1        -0.3764040112E+01      0.9255883977E+01
          0                 3           2             4    7     1       0.7260790926E-01       4    7    1         0.4008478063E+01      0.9841711477E+01
          0                 4           2             4    7     1      -0.2889377886E-02       4    6    1        -0.1659041030E+00      0.3919617225E+00
          0                 5           1             5    8     1      -0.2375497239E-03       5    8    1        -0.1430988002E-01      0.1519074638E-01
          0                 6           1             5    8     1      -0.2592600735E-04       5    8    1        -0.1555386715E-02      0.1556840899E-02

    ------------------------------------------------
       NWT REQUIRED            6 OUTER ITERATIONS 
       AND A TOTAL OF         10 INNER ITERATIONS.
    ------------------------------------------------

 NO OUTPUT CONTROL FOR STRESS PERIOD   31   TIME STEP   29
 
 SOLVING FOR HEAD 
                                                   Max.-Head-Change                         Max.-Flux-Residual
  Residual-Control   Outer-Iter.   Inner-Iter.     Column Row Layer    Maximum-Head-Change  Column Row Layer    Maximum-Flux-Residual          L2-NORM 
          0                 1           2             4   13     1       0.8677851652E-02       4   13    1         0.5004296259E+00      0.1099979378E+01
          0                 2           2             7   13     1      -0.4564298757E-02       7   13    1        -0.2532374910E+00      0.2724422412E+00
          0                 3           2             7   13     1       0.3107251895E-03       7   13    1         0.1772141678E-01      0.1897851726E-01
          0                 4           1             7   13     1      -0.1235858456E-04       7   13    1        -0.7244584126E-03      0.7703184430E-03

    ------------------------------------------------
       NWT REQUIRED            4 OUTER ITERATIONS 
       AND A TOTAL OF          7 INNER ITERATIONS.
    ------------------------------------------------

 NO OUTPUT CONTROL FOR STRESS PERIOD   31   TIME STEP   30



 STREAM LISTING     PERIOD     31   STEP       30

 LAYER ROW COL. STREAM  RCH.  FLOW INTO     FLOW TO   FLOW OUT OF   OVRLND.     DIRECT     STREAM       STREAM     STREAM     STREAM   STREAMBED  STREAMBED
                SEG.NO.  NO.  STRM. RCH.    AQUIFER    STRM. RCH.    RUNOFF     PRECIP       ET          HEAD       DEPTH      WIDTH   CONDCTNC.   GRADIENT

   1    1    1     1     1    6.2248E+01  3.7978E-01   6.1868E+01  0.000E+00  0.000E+00  0.000E+00  1.09460E+03  1.553E+00  1.854E+01  8.342E-02  1.518E+00
   1    2    2     1     2    6.1868E+01  5.8816E-01   6.1280E+01  0.000E+00  0.000E+00  0.000E+00  1.08961E+03  1.547E+00  1.848E+01  1.294E-01  1.516E+00
   1    3    3     1     3    6.1280E+01  5.0162E-01   6.0779E+01  0.000E+00  0.000E+00  0.000E+00  1.08396E+03  1.540E+00  1.841E+01  1.105E-01  1.513E+00
   1    3    4     1     4    6.0779E+01  4.6193E-01   6.0317E+01  0.000E+00  0.000E+00  0.000E+00  1.07894E+03  1.534E+00  1.836E+01  1.019E-01  1.511E+00
   1    4    5     2     1    5.8317E+01  3.9026E-01   5.7926E+01  0.000E+00  0.000E+00  0.000E+00  1.07394E+03  2.003E+00  1.200E+01  7.800E-02  1.668E+00
   1    5    6     2     2    5.7926E+01  2.9977E-01   5.7627E+01  0.000E+00  0.000E+00  0.000E+00  1.06851E+03  1.996E+00  1.200E+01  6.000E-02  1.665E+00
   1    6    6     2     3    5.7627E+01  2.9940E-01   5.7327E+01  0.000E+00  0.000E+00  0.000E+00  1.06378E+03  1.990E+00  1.200E+01  6.000E-02  1.663E+00
   1    7    6     2     4    5.7327E+01  2.9902E-01   5.7028E+01  0.000E+00  0.000E+00  0.000E+00  1.05906E+03  1.984E+00  1.200E+01  6.000E-02  1.661E+00
   1    8    6     2     5    5.7028E+01  2.9865E-01   5.6730E+01  0.000E+00  0.000E+00  0.000E+00  1.05434E+03  1.977E+00  1.200E+01  6.000E-02  1.659E+00
   1    3    5     3     1    2.0000E+00  2.8252E-01   1.7175E+00  0.000E+00  0.000E+00  0.000E+00  1.07555E+03  1.909E+00  9.636E+00  7.227E-02  1.955E+00
   1    3    6     3     2    1.7175E+00  2.4905E-01   1.4684E+00  0.000E+00  0.000E+00  0.000E+00  1.07264E+03  1.727E+00  8.909E+00  6.682E-02  1.864E+00
   1    3    7     3     3    1.4684E+00  1.9718E-01   1.2712E+00  0.000E+00  0.000E+00  0.000E+00  1.06987E+03  1.555E+00  8.218E+00  5.547E-02  1.777E+00
   1    4    8     3     4    1.2712E+00  2.2567E-01   1.0456E+00  0.000E+00  0.000E+00  0.000E+00  1.06682E+03  1.364E+00  7.455E+00  6.709E-02  1.682E+00
   1    5    8     3     5    1.0456E+00  1.5790E-01   8.8768E-01  0.000E+00  0.000E+00  0.000E+00  1.06362E+03  1.164E+00  6.655E+00  4.991E-02  1.582E+00
   1    6    8     3     6    8.8768E-01  5.5980E-02   8.3170E-01  0.000E+00  0.000E+00  0.000E+00  1.06158E+03  1.036E+00  6.145E+00  1.844E-02  1.518E+00
   1    5   10     4     1    1.0000E+01  9.0919E-02   9.9091E+00  0.000E+00  0.000E+00  0.000E+00  1.07836E+03  6.368E-01  1.000E+01  2.500E-02  1.212E+00
   1    5    9     4     2    9.9091E+00  1.8158E-01   9.7275E+00  0.000E+00  0.000E+00  0.000E+00  1.07154E+03  6.315E-01  1.000E+01  5.000E-02  1.211E+00
   1    6    8     4     3    9.7275E+00  1.2689E-01   9.6006E+00  0.000E+00  0.000E+00  0.000E+00  1.06381E+03  6.256E-01  1.000E+01  3.500E-02  1.209E+00
   1    6    8     5     1    1.0432E+01  2.2686E-01   1.0205E+01  0.000E+00  0.000E+00  0.000E+00  1.05868E+03  6.790E-01  1.542E+01  6.166E-02  1.226E+00
   1    7    7     5     2    1.0205E+01  2.7894E-01   9.9265E+00  0.000E+00  0.000E+00  0.000E+00  1.05417E+03  6.732E-01  1.519E+01  7.594E-02  1.224E+00
   1    8    7     5     3    9.9265E+00  1.9221E-01   9.7343E+00  0.000E+00  0.000E+00  0.000E+00  1.04992E+03  6.676E-01  1.497E+01  5.241E-02  1.223E+00
   1    8    6     5     4    9.7343E+00  1.3577E-01   9.5985E+00  0.000E+00  0.000E+00  0.000E+00  1.04691E+03  6.637E-01  1.482E+01  3.706E-02  1.221E+00
   1    9    6     6     1    6.6328E+01  3.1138E-01   6.6017E+01  0.000E+00  0.000E+00  0.000E+00  1.04492E+03  2.190E+00  1.200E+01  6.000E-02  1.730E+00
   1   10    7     6     2    6.6017E+01  3.1101E-01   6.5706E+01  0.000E+00  0.000E+00  0.000E+00  1.04037E+03  2.183E+00  1.200E+01  6.000E-02  1.728E+00
   1   11    7     6     3    6.5706E+01  3.1064E-01   6.5395E+01  0.000E+00  0.000E+00  0.000E+00  1.03581E+03  2.177E+00  1.200E+01  6.000E-02  1.726E+00
   1   12    7     6     4    6.5395E+01  3.1027E-01   6.5085E+01  0.000E+00  0.000E+00  0.000E+00  1.03126E+03  2.171E+00  1.200E+01  6.000E-02  1.724E+00
   1   13    7     6     5    6.5085E+01  2.5691E-02   6.5059E+01  0.000E+00  0.000E+00  0.000E+00  1.02808E+03  2.168E+00  1.200E+01  2.400E-02  3.568E-01
   1   14    9     7     1    1.5000E+02  1.3441E+00   1.4866E+02  0.000E+00  0.000E+00  0.000E+00  1.03987E+03  2.288E+00  5.529E+01  5.593E-01  8.011E-01
   1   13    8     7     2    1.4866E+02  1.8593E+00   1.4680E+02  0.000E+00  0.000E+00  0.000E+00  1.03478E+03  2.279E+00  5.526E+01  6.148E-01  1.008E+00
   1   13    7     7     3    1.4680E+02  1.4984E+00   1.4530E+02  0.000E+00  0.000E+00  0.000E+00  1.02969E+03  2.270E+00  5.522E+01  5.584E-01  8.944E-01
   1   13    6     8     1    2.1036E+02  1.1232E+00   2.0923E+02  0.000E+00  0.000E+00  0.000E+00  1.02507E+03  3.194E+00  4.632E+01  4.720E-01  7.932E-01
   1   13    5     8     2    2.0923E+02  3.0614E-01   2.0893E+02  0.000E+00  0.000E+00  0.000E+00  1.01882E+03  3.190E+00  4.626E+01  4.714E-01  2.165E-01
   1   13    4     8     3    2.0893E+02 -1.8135E+00   2.1074E+02  0.000E+00  0.000E+00  0.000E+00  1.01257E+03  3.195E+00  4.632E+01  4.721E+00 -1.281E-01
   1   13    3     8     4    2.1074E+02 -3.1594E+00   2.1390E+02  0.000E+00  0.000E+00  0.000E+00  1.00633E+03  3.209E+00  4.653E+01  4.741E+00 -2.221E-01
   1   13    2     8     5    2.1390E+02 -2.1281E+00   2.1603E+02  0.000E+00  0.000E+00  0.000E+00  1.00010E+03  3.224E+00  4.674E+01  4.763E+00 -1.489E-01
   1   13    1     8     6    2.1603E+02 -1.7646E+00   2.1779E+02  0.000E+00  0.000E+00  0.000E+00  9.95110E+02  3.235E+00  4.690E+01  2.868E+00 -2.051E-01
   1    8    6     9     1    0.0000E+00  0.0000E+00   0.0000E+00  0.000E+00  0.000E+00  0.000E+00  1.07875E+03  0.000E+00  4.000E+00  0.000E+00  1.000E+00
   1    8    5     9     2    0.0000E+00  0.0000E+00   0.0000E+00  0.000E+00  0.000E+00  0.000E+00  1.07825E+03  0.000E+00  4.000E+00  0.000E+00  1.000E+00





UNSATURATED ZONE PACKAGE VOLUMETRIC BUDGET FOR  TIME STEP    30 STRESS PERIOD   31
  ------------------------------------------------------------------------------



     CUMULATIVE VOLUMES      L**3       RATES FOR THIS TIME STEP      L**3/T
     ------------------                 ------------------------

           IN:                                      IN:
           ---                                      ---
        INFILTRATION =  1128786245.1524          INFILTRATION =           0.8475

          OUT:                                     OUT:
          ----                                     ----
              UZF ET =   953912340.1552                UZF ET =          23.3217
        UZF RECHARGE =     2931317.4664          UZF RECHARGE =           0.0198

            IN - OUT =   171942587.5308              IN - OUT =         -22.4940

          STORAGE:                                 STORAGE:
          --------                                 --------
      STORAGE CHANGE =   171943773.0960        STORAGE CHANGE =         -22.4937

 PERCENT DISCREPANCY IS DIFFERENCE BETWEEN IN-OUT MINUS CHANGE IN STORAGE
 DIVIDED BY THE AVERAGE OF IN AND OUT TIMES 100

 PERCENT DISCREPANCY =          -0.00     PERCENT DISCREPANCY =          -0.00






1
  VOLUMETRIC BUDGET FOR AGRICULTURAL FIELDS AT  END OF TIME STEP   30, STRESS PERIOD  31
  ------------------------------------------------------------------------------

     CUMULATIVE VOLUMES      L**3       RATES FOR THIS TIME STEP      L**3/T
     ------------------                 ------------------------

           IN:                                      IN:
           ---                                      ---
               AG WELLS  =   391007552.0000                 AG WELLS  =           0.0000
      DIVERSION SEGMENTS =   670829632.0000        DIVERSION SEGMENTS =           0.0000
           GW IRRIGATION =           0.0000             GW IRRIGATION =           0.0000
           SW IRRIGATION =           0.0000             SW IRRIGATION =           0.0000
        SYSTEM LOSSES GW =           0.0000          SYSTEM LOSSES GW =           0.0000
        SYSTEM LOSSES SW =           0.0000          SYSTEM LOSSES SW =           0.0000

                TOTAL IN =  1061837184.0000                  TOTAL IN =           0.0000

          OUT:                                     OUT:
          ----                                     ----
               AG WELLS  =           0.0000                 AG WELLS  =           0.0000
      DIVERSION SEGMENTS =           0.0000        DIVERSION SEGMENTS =           0.0000
           GW IRRIGATION =   391007552.0000             GW IRRIGATION =           0.0000
           SW IRRIGATION =   670843648.0000             SW IRRIGATION =           0.0000
        SYSTEM LOSSES GW =           0.0000          SYSTEM LOSSES GW =           0.0000
        SYSTEM LOSSES SW =           0.0000          SYSTEM LOSSES SW =           0.0000

               TOTAL OUT =  1061851200.0000                 TOTAL OUT =           0.0000

                IN - OUT =      -14016.0000                  IN - OUT =           0.0000

     PERCENT DISCREPANCY =          -0.00         PERCENT DISCREPANCY =           0.00



1
  VOLUMETRIC BUDGET FOR ENTIRE MODEL AT END OF TIME STEP   30, STRESS PERIOD  31
  ------------------------------------------------------------------------------

     CUMULATIVE VOLUMES      L**3       RATES FOR THIS TIME STEP      L**3/T
     ------------------                 ------------------------

           IN:                                      IN:
           ---                                      ---
             STORAGE     =   667868032.0000               STORAGE     =           1.0283
       CONSTANT HEAD     =           0.0000         CONSTANT HEAD     =           0.0000
     HEAD DEP BOUNDS     =    22580004.0000       HEAD DEP BOUNDS     =           0.2863
      STREAM LEAKAGE     =   948955328.0000        STREAM LEAKAGE     =          13.3201
        UZF RECHARGE     =     2931318.2500          UZF RECHARGE     =       1.9824E-02
               GW ET     =           0.0000                 GW ET     =           0.0000
     SURFACE LEAKAGE     =           0.0000       SURFACE LEAKAGE     =           0.0000
           AG WELLS      =           0.0000             AG WELLS      =           0.0000

                TOTAL IN =  1642334720.0000                  TOTAL IN =          14.6546

          OUT:                                     OUT:
          ----                                     ----
             STORAGE     =   382046912.0000               STORAGE     =           5.4940
       CONSTANT HEAD     =           0.0000         CONSTANT HEAD     =           0.0000
     HEAD DEP BOUNDS     =    22978958.0000       HEAD DEP BOUNDS     =           0.2936
      STREAM LEAKAGE     =   843641856.0000        STREAM LEAKAGE     =           8.8656
        UZF RECHARGE     =           0.0000          UZF RECHARGE     =           0.0000
               GW ET     =     2673563.7500                 GW ET     =       1.4392E-03
     SURFACE LEAKAGE     =           0.0000       SURFACE LEAKAGE     =           0.0000
           AG WELLS      =   391007552.0000             AG WELLS      =           0.0000

               TOTAL OUT =  1642348800.0000                 TOTAL OUT =          14.6545

                IN - OUT =      -14080.0000                  IN - OUT =       2.8610E-05

     PERCENT DISCREPANCY =          -0.00         PERCENT DISCREPANCY =           0.00






         TIME SUMMARY AT END OF TIME STEP   30 IN STRESS PERIOD   31
                    SECONDS     MINUTES      HOURS       DAYS        YEARS
                    -----------------------------------------------------------
   TIME STEP LENGTH  87667.      1461.1      24.352      1.0147     2.77799E-03
 STRESS PERIOD TIME 2.63000E+06  43833.      730.56      30.440     8.33397E-02
         TOTAL TIME 7.89864E+07 1.31644E+06  21941.      914.20      2.5029    
1
1
                            STRESS PERIOD NO.   32, LENGTH =   2630000.    
                            -----------------------------------------------

                              NUMBER OF TIME STEPS =    30

                               MULTIPLIER FOR DELT =     1.000

                            INITIAL TIME STEP SIZE =   87666.66    

 REUSING NON-PARAMETER GHB CELLS FROM LAST STRESS PERIOD

      2 GHB CELLS

 REUSING STREAM SEGMENT DATA FROM LAST STRESS PERIOD



            AREAL INFILTRATION RATE
 READING ON UNIT   19 WITH FORMAT: (FREE)              

            1           2           3           4           5           6           7           8           9          10
 ........................................................................................................................
   1   1.0000E-10  2.0000E-10   0.000       0.000       0.000       0.000       0.000       0.000       0.000       0.000    
   2   2.0000E-10  1.0000E-10  2.0000E-10   0.000       0.000      8.0000E-10  8.0000E-10  5.0000E-10   0.000       0.000    
   3    0.000      5.0000E-10  1.0000E-10  1.0000E-10  8.0000E-10  8.0000E-10  5.0000E-10  5.0000E-10   0.000       0.000    
   4   8.0000E-10  5.0000E-10  1.0000E-10  1.0000E-10  1.0000E-10  1.0000E-10  1.0000E-10  1.0000E-10  2.0000E-10   0.000    
   5   8.0000E-10  5.0000E-10  1.0000E-10  1.0000E-10  1.0000E-10  1.0000E-10  1.0000E-10  1.0000E-10  1.0000E-10  1.0000E-10
   6   8.0000E-10  5.0000E-10  5.0000E-10  2.0000E-10  2.0000E-10  1.0000E-10  1.0000E-10  1.0000E-10  1.0000E-10  5.0000E-10
   7   8.0000E-10  5.0000E-10  5.0000E-10  2.0000E-10  2.0000E-10  1.0000E-10  1.0000E-10  2.0000E-10  2.0000E-10   0.000    
   8    0.000      5.0000E-10  5.0000E-10  2.0000E-10  2.0000E-10  1.0000E-10  1.0000E-10  2.0000E-10  5.0000E-10   0.000    
   9    0.000      5.0000E-10  5.0000E-10  2.0000E-10  2.0000E-10  1.0000E-10  1.0000E-10  2.0000E-10  5.0000E-10   0.000    
  10    0.000      5.0000E-10  5.0000E-10  2.0000E-10  2.0000E-10  1.0000E-10  1.0000E-10  2.0000E-10  5.0000E-10  8.0000E-10
  11    0.000      1.0000E-10  1.0000E-10  1.0000E-10  1.0000E-10  1.0000E-10  1.0000E-10  2.0000E-10  5.0000E-10   0.000    
  12   1.0000E-10  1.0000E-10  1.0000E-10  1.0000E-10  1.0000E-10  1.0000E-10  1.0000E-10  1.0000E-10  2.0000E-10   0.000    
  13   1.0000E-10  1.0000E-10  2.0000E-10  2.0000E-10  2.0000E-10  2.0000E-10  2.0000E-10  1.0000E-10  1.0000E-10   0.000    
  14    0.000      2.0000E-10  5.0000E-10  5.0000E-10  5.0000E-10  5.0000E-10  5.0000E-10  2.0000E-10  1.0000E-10   0.000    
  15    0.000       0.000      8.0000E-10  8.0000E-10  8.0000E-10  8.0000E-10   0.000       0.000       0.000       0.000    

                  ET RATE =  4.000000E-07

 USING ET EXTINCTION DEPTH FROM PREVIOUS STRESS PERIOD. CURRENT PERIOD IS:      32

 USING EXTINCTION WATER CONTENT FROM PREVIOUS STRESS PERIOD. CURRENT PERIOD IS:      32

 USING AIR ENTRY PRESSURE FROM PREVIOUS STRESS PERIOD. CURRENT PERIOD IS:      32

 USING ROOT PRESSURE HEAD FROM PREVIOUS STRESS PERIOD. CURRENT PERIOD IS:      32

 USING ROOT ACTIVITY FROM PREVIOUS STRESS PERIOD. CURRENT PERIOD IS:      32

 PROCESSING AG STRESS PERIOD DATA

 READING AG STRESS PERIOD DATA

 READING IRRIGATION SEGMENT

 READING IRRIGATION WELL

 READING SUPPLEMENTAL WELL

 END PROCESSING AG STRESS PERIOD DATA OPTIONS
 
 SOLVING FOR HEAD 
                                                   Max.-Head-Change                         Max.-Flux-Residual
  Residual-Control   Outer-Iter.   Inner-Iter.     Column Row Layer    Maximum-Head-Change  Column Row Layer    Maximum-Flux-Residual          L2-NORM 
          0                 1           2             4   13     1       0.5919880657E-02       4   13    1         0.3417688373E+00      0.8725576807E+00
          0                 2           2             4    7     1      -0.2118690468E+00       4    7    1        -0.1137866161E+02      0.2793212402E+02
          0                 3           2             4    7     1       0.1441999610E-01       5    7    1         0.7963487130E+00      0.1949107323E+01
          0                 4           2             4    7     1      -0.5737865027E-03       5    7    1        -0.3257078938E-01      0.8014030596E-01
          0                 5           1             4    7     1       0.7075033567E-05       5    7    1         0.4127721670E-03      0.1088637296E-02

    ------------------------------------------------
       NWT REQUIRED            5 OUTER ITERATIONS 
       AND A TOTAL OF          9 INNER ITERATIONS.
    ------------------------------------------------

 NO OUTPUT CONTROL FOR STRESS PERIOD   32   TIME STEP    1
 
 SOLVING FOR HEAD 
                                                   Max.-Head-Change                         Max.-Flux-Residual
  Residual-Control   Outer-Iter.   Inner-Iter.     Column Row Layer    Maximum-Head-Change  Column Row Layer    Maximum-Flux-Residual          L2-NORM 
          0                 1           2             5    6     1       0.8771972005E-02       5    6    1         0.4739765166E+00      0.1230268397E+01
          0                 2           2             4    7     1      -0.9453761772E-01       5    6    1        -0.5096430881E+01      0.1252322108E+02
          0                 3           2             4    7     1       0.6860938933E-01       5    6    1         0.3787119113E+01      0.9300315136E+01
          0                 4           2             4    7     1      -0.2730061907E-02       4    8    1        -0.1548567608E+00      0.3943827748E+00
          0                 5           2             7   13     1       0.1168665760E-03       7   13    1         0.6695475038E-02      0.8482836415E-02
          0                 6           1             7   13     1      -0.4648378208E-05       7   13    1        -0.2736382783E-03      0.2839658817E-03

    ------------------------------------------------
       NWT REQUIRED            6 OUTER ITERATIONS 
       AND A TOTAL OF         11 INNER ITERATIONS.
    ------------------------------------------------

 NO OUTPUT CONTROL FOR STRESS PERIOD   32   TIME STEP    2
 
 SOLVING FOR HEAD 
                                                   Max.-Head-Change                         Max.-Flux-Residual
  Residual-Control   Outer-Iter.   Inner-Iter.     Column Row Layer    Maximum-Head-Change  Column Row Layer    Maximum-Flux-Residual          L2-NORM 
          0                 1           2             5    6     1       0.9277453567E-02       5    6    1         0.5015485543E+00      0.1331862954E+01
          0                 2           2             4    7     1      -0.2144880553E+00       5    6    1        -0.1153644585E+02      0.2830650089E+02
          0                 3           2             4    7     1       0.1460486396E-01       5    6    1         0.8073996789E+00      0.1981140461E+01
          0                 4           2             4    7     1      -0.5811425394E-03       5    6    1        -0.3300928885E-01      0.8112506731E-01
          0                 5           1             4    7     1       0.7165737468E-05       4    7    1         0.4176954963E-03      0.1052386901E-02

    ------------------------------------------------
       NWT REQUIRED            5 OUTER ITERATIONS 
       AND A TOTAL OF          9 INNER ITERATIONS.
    ------------------------------------------------

 NO OUTPUT CONTROL FOR STRESS PERIOD   32   TIME STEP    3
 
 SOLVING FOR HEAD 
                                                   Max.-Head-Change                         Max.-Flux-Residual
  Residual-Control   Outer-Iter.   Inner-Iter.     Column Row Layer    Maximum-Head-Change  Column Row Layer    Maximum-Flux-Residual          L2-NORM 
          0                 1           2             5    6     1       0.1482347426E-01       5    6    1         0.8060886959E+00      0.1888817489E+01
          0                 2           2             4    7     1      -0.9472660991E-01       5    6    1        -0.5132042953E+01      0.1258749483E+02
          0                 3           2             4    7     1       0.6857938190E-01       5    6    1         0.3787224851E+01      0.9299041027E+01
          0                 4           2             4    7     1      -0.2728867031E-02       5    8    1        -0.1548578091E+00      0.3941316718E+00
          0                 5           2             7   13     1       0.1157898369E-03       7   13    1         0.6633815122E-02      0.8435140204E-02
          0                 6           1             7   13     1      -0.4605521853E-05       7   13    1        -0.2711128107E-03      0.2814686426E-03

    ------------------------------------------------
       NWT REQUIRED            6 OUTER ITERATIONS 
       AND A TOTAL OF         11 INNER ITERATIONS.
    ------------------------------------------------

 NO OUTPUT CONTROL FOR STRESS PERIOD   32   TIME STEP    4
 
 SOLVING FOR HEAD 
                                                   Max.-Head-Change                         Max.-Flux-Residual
  Residual-Control   Outer-Iter.   Inner-Iter.     Column Row Layer    Maximum-Head-Change  Column Row Layer    Maximum-Flux-Residual          L2-NORM 
          0                 1           2             5    6     1       0.1501532549E-01       5    6    1         0.8162048723E+00      0.1957554204E+01
          0                 2           2             4    7     1      -0.2146417187E+00       5    6    1        -0.1156789620E+02      0.2836242224E+02
          0                 3           2             4    7     1       0.1461603394E-01       5    6    1         0.8096137394E+00      0.1986340714E+01
          0                 4           2             4    7     1      -0.5815869670E-03       5    6    1        -0.3310106078E-01      0.8133006714E-01
          0                 5           1             4    7     1       0.7171217346E-05       5    6    1         0.4186604328E-03      0.1053652572E-02

    ------------------------------------------------
       NWT REQUIRED            5 OUTER ITERATIONS 
       AND A TOTAL OF          9 INNER ITERATIONS.
    ------------------------------------------------

 NO OUTPUT CONTROL FOR STRESS PERIOD   32   TIME STEP    5
 
 SOLVING FOR HEAD 
                                                   Max.-Head-Change                         Max.-Flux-Residual
  Residual-Control   Outer-Iter.   Inner-Iter.     Column Row Layer    Maximum-Head-Change  Column Row Layer    Maximum-Flux-Residual          L2-NORM 
          0                 1           2             5    8     1       0.2028132181E-01       5    8    1         0.1107403864E+01      0.2539398579E+01
          0                 2           2             4    7     1      -0.9488607784E-01       5    8    1        -0.5162177161E+01      0.1264171581E+02
          0                 3           2             4    7     1       0.6859038570E-01       5    8    1         0.3789324975E+01      0.9302946542E+01
          0                 4           2             4    7     1      -0.2729304792E-02       5    8    1        -0.1549467990E+00      0.3941007788E+00
          0                 5           2             7   13     1       0.1147585707E-03       7   13    1         0.6574764877E-02      0.8391300725E-02
          0                 6           1             7   13     1      -0.4564460141E-05       7   13    1        -0.2686969697E-03      0.2792879043E-03

    ------------------------------------------------
       NWT REQUIRED            6 OUTER ITERATIONS 
       AND A TOTAL OF         11 INNER ITERATIONS.
    ------------------------------------------------

 NO OUTPUT CONTROL FOR STRESS PERIOD   32   TIME STEP    6
 
 SOLVING FOR HEAD 
                                                   Max.-Head-Change                         Max.-Flux-Residual
  Residual-Control   Outer-Iter.   Inner-Iter.     Column Row Layer    Maximum-Head-Change  Column Row Layer    Maximum-Flux-Residual          L2-NORM 
          0                 1           2             5    6     1       0.2018087136E-01       5    8    1         0.1100888037E+01      0.2573409643E+01
          0                 2           2             4    7     1      -0.2148083175E+00       5    8    1        -0.1159636575E+02      0.2841439839E+02
          0                 3           2             4    7     1       0.1462738220E-01       5    6    1         0.8116045686E+00      0.1989930940E+01
          0                 4           2             4    7     1      -0.5820385072E-03       5    6    1        -0.3318355022E-01      0.8147126077E-01
          0                 5           1             4    7     1       0.7176785156E-05       5    6    1         0.4197781266E-03      0.1054135842E-02

    ------------------------------------------------
       NWT REQUIRED            5 OUTER ITERATIONS 
       AND A TOTAL OF          9 INNER ITERATIONS.
    ------------------------------------------------

 NO OUTPUT CONTROL FOR STRESS PERIOD   32   TIME STEP    7
 
 SOLVING FOR HEAD 
                                                   Max.-Head-Change                         Max.-Flux-Residual
  Residual-Control   Outer-Iter.   Inner-Iter.     Column Row Layer    Maximum-Head-Change  Column Row Layer    Maximum-Flux-Residual          L2-NORM 
          0                 1           2             5    8     1       0.2526429875E-01       5    8    1         0.1380595182E+01      0.3147281781E+01
          0                 2           2             4    7     1      -0.9505836171E-01       5    8    1        -0.5189496989E+01      0.1269227775E+02
          0                 3           2             4    7     1       0.6860231507E-01       5    8    1         0.3791247832E+01      0.9306579020E+01
          0                 4           2             4    7     1      -0.2729779396E-02       5    8    1        -0.1550265187E+00      0.3940668792E+00
          0                 5           2             7   13     1       0.1137701148E-03       7   13    1         0.6518211140E-02      0.8349187770E-02
          0                 6           1             7   13     1      -0.4523943222E-05       7   13    1        -0.2663203077E-03      0.2767975555E-03

    ------------------------------------------------
       NWT REQUIRED            6 OUTER ITERATIONS 
       AND A TOTAL OF         11 INNER ITERATIONS.
    ------------------------------------------------

 NO OUTPUT CONTROL FOR STRESS PERIOD   32   TIME STEP    8
 
 SOLVING FOR HEAD 
                                                   Max.-Head-Change                         Max.-Flux-Residual
  Residual-Control   Outer-Iter.   Inner-Iter.     Column Row Layer    Maximum-Head-Change  Column Row Layer    Maximum-Flux-Residual          L2-NORM 
          0                 1           2             5    8     1       0.2490174814E-01       5    8    1         0.1359816905E+01      0.3150496467E+01
          0                 2           2             4    7     1      -0.2149864362E+00       5    8    1        -0.1162225928E+02      0.2846288533E+02
          0                 3           2             4    7     1       0.1463951432E-01       5    6    1         0.8133992948E+00      0.1993283325E+01
          0                 4           2             4    7     1      -0.5825212410E-03       5    6    1        -0.3325788738E-01      0.8160378533E-01
          0                 5           1             4    7     1       0.7182737400E-05       5    6    1         0.4207835636E-03      0.1054688601E-02

    ------------------------------------------------
       NWT REQUIRED            5 OUTER ITERATIONS 
       AND A TOTAL OF          9 INNER ITERATIONS.
    ------------------------------------------------

 NO OUTPUT CONTROL FOR STRESS PERIOD   32   TIME STEP    9
 
 SOLVING FOR HEAD 
                                                   Max.-Head-Change                         Max.-Flux-Residual
  Residual-Control   Outer-Iter.   Inner-Iter.     Column Row Layer    Maximum-Head-Change  Column Row Layer    Maximum-Flux-Residual          L2-NORM 
          0                 1           2             5    8     1       0.2975045667E-01       5    8    1         0.1626122612E+01      0.3708314633E+01
          0                 2           2             4    7     1      -0.9524083835E-01       5    8    1        -0.5214050472E+01      0.1273950082E+02
          0                 3           2             4    7     1       0.6861495559E-01       5    8    1         0.3792975686E+01      0.9309961455E+01
          0                 4           2             4    7     1      -0.2730282310E-02       5    8    1        -0.1550981256E+00      0.3940305956E+00
          0                 5           2             7   13     1       0.1128254842E-03       7   13    1         0.6464115104E-02      0.8308871556E-02
          0                 6           1             7   13     1      -0.4487675743E-05       7   13    1        -0.2641818028E-03      0.2746770410E-03

    ------------------------------------------------
       NWT REQUIRED            6 OUTER ITERATIONS 
       AND A TOTAL OF         11 INNER ITERATIONS.
    ------------------------------------------------

 NO OUTPUT CONTROL FOR STRESS PERIOD   32   TIME STEP   10
 
 SOLVING FOR HEAD 
                                                   Max.-Head-Change                         Max.-Flux-Residual
  Residual-Control   Outer-Iter.   Inner-Iter.     Column Row Layer    Maximum-Head-Change  Column Row Layer    Maximum-Flux-Residual          L2-NORM 
          0                 1           2             5    8     1       0.2916454223E-01       5    8    1         0.1592923695E+01      0.3684732602E+01
          0                 2           2             4    7     1      -0.2151735626E+00       5    8    1        -0.1164557064E+02      0.2850819757E+02
          0                 3           2             4    7     1       0.1465225666E-01       5    8    1         0.8154596063E+00      0.1996611616E+01
          0                 4           2             4    7     1      -0.5830256742E-03       5    6    1        -0.3332508042E-01      0.8158461145E-01
          0                 5           1             4    7     1       0.7188957248E-05       5    6    1         0.4216907346E-03      0.1053915313E-02

    ------------------------------------------------
       NWT REQUIRED            5 OUTER ITERATIONS 
       AND A TOTAL OF          9 INNER ITERATIONS.
    ------------------------------------------------

 NO OUTPUT CONTROL FOR STRESS PERIOD   32   TIME STEP   11
 
 SOLVING FOR HEAD 
                                                   Max.-Head-Change                         Max.-Flux-Residual
  Residual-Control   Outer-Iter.   Inner-Iter.     Column Row Layer    Maximum-Head-Change  Column Row Layer    Maximum-Flux-Residual          L2-NORM 
          0                 1           2             5    8     1       0.3380289151E-01       5    8    1         0.1847532798E+01      0.4224859130E+01
          0                 2           2             4    7     1      -0.9543115387E-01       5    8    1        -0.5236192243E+01      0.1278367317E+02
          0                 3           2             4    7     1       0.6862813415E-01       5    8    1         0.3797118434E+01      0.9314167219E+01
          0                 4           2             4    7     1      -0.2730797131E-02       5    6    1        -0.1551528843E+00      0.3935008400E+00
          0                 5           2             7   13     1       0.1119200165E-03       7   13    1         0.6412267807E-02      0.8270808745E-02
          0                 6           1             7   13     1      -0.4450500350E-05       7   13    1        -0.2619956354E-03      0.2727983702E-03

    ------------------------------------------------
       NWT REQUIRED            6 OUTER ITERATIONS 
       AND A TOTAL OF         11 INNER ITERATIONS.
    ------------------------------------------------

 NO OUTPUT CONTROL FOR STRESS PERIOD   32   TIME STEP   12
 
 SOLVING FOR HEAD 
                                                   Max.-Head-Change                         Max.-Flux-Residual
  Residual-Control   Outer-Iter.   Inner-Iter.     Column Row Layer    Maximum-Head-Change  Column Row Layer    Maximum-Flux-Residual          L2-NORM 
          0                 1           2             5    8     1       0.3302193796E-01       5    8    1         0.1803503487E+01      0.4177961293E+01
          0                 2           2             4    7     1      -0.2153674946E+00       5    8    1        -0.1166662931E+02      0.2855061655E+02
          0                 3           2             4    7     1       0.1466553288E-01       5    8    1         0.8251854272E+00      0.2002974413E+01
          0                 4           2             4    7     1      -0.5835564255E-03       5    8    1        -0.3374406340E-01      0.8199380257E-01
          0                 5           1             4    7     1       0.7195502163E-05       5    8    1         0.4272246049E-03      0.1057563165E-02

    ------------------------------------------------
       NWT REQUIRED            5 OUTER ITERATIONS 
       AND A TOTAL OF          9 INNER ITERATIONS.
    ------------------------------------------------

 NO OUTPUT CONTROL FOR STRESS PERIOD   32   TIME STEP   13
 
 SOLVING FOR HEAD 
                                                   Max.-Head-Change                         Max.-Flux-Residual
  Residual-Control   Outer-Iter.   Inner-Iter.     Column Row Layer    Maximum-Head-Change  Column Row Layer    Maximum-Flux-Residual          L2-NORM 
          0                 1           2             5    8     1       0.3755614649E-01       5    8    1         0.2055193095E+01      0.4705300814E+01
          0                 2           2             5    7     1      -0.9566957600E-01       5    8    1        -0.5256953766E+01      0.1282537064E+02
          0                 3           2             4    7     1       0.6864170534E-01       5    8    1         0.3796009443E+01      0.9316092698E+01
          0                 4           2             4    7     1      -0.2731344606E-02       5    8    1        -0.1552116510E+00      0.3939544824E+00
          0                 5           2             7   13     1       0.1110552339E-03       7   13    1         0.6362748220E-02      0.8236995033E-02
          0                 6           1             7   13     1      -0.4418475171E-05       7   13    1        -0.2601133601E-03      0.2710409876E-03

    ------------------------------------------------
       NWT REQUIRED            6 OUTER ITERATIONS 
       AND A TOTAL OF         11 INNER ITERATIONS.
    ------------------------------------------------

 NO OUTPUT CONTROL FOR STRESS PERIOD   32   TIME STEP   14
 
 SOLVING FOR HEAD 
                                                   Max.-Head-Change                         Max.-Flux-Residual
  Residual-Control   Outer-Iter.   Inner-Iter.     Column Row Layer    Maximum-Head-Change  Column Row Layer    Maximum-Flux-Residual          L2-NORM 
          0                 1           2             5    8     1       0.3657686502E-01       5    8    1         0.2000050439E+01      0.4637054071E+01
          0                 2           2             4    7     1      -0.2155662625E+00       5    8    1        -0.1168627977E+02      0.2859064494E+02
          0                 3           2             4    7     1       0.1467902369E-01       5    8    1         0.8179296107E+00      0.2002204455E+01
          0                 4           2             4    7     1      -0.5840932321E-03       5    8    1        -0.3344395410E-01      0.8195893118E-01
          0                 5           1             4    7     1       0.7202121007E-05       5    6    1         0.4232564884E-03      0.1057009977E-02

    ------------------------------------------------
       NWT REQUIRED            5 OUTER ITERATIONS 
       AND A TOTAL OF          9 INNER ITERATIONS.
    ------------------------------------------------

 NO OUTPUT CONTROL FOR STRESS PERIOD   32   TIME STEP   15
 
 SOLVING FOR HEAD 
                                                   Max.-Head-Change                         Max.-Flux-Residual
  Residual-Control   Outer-Iter.   Inner-Iter.     Column Row Layer    Maximum-Head-Change  Column Row Layer    Maximum-Flux-Residual          L2-NORM 
          0                 1           2             5    8     1       0.4100274156E-01       5    8    1         0.2243316916E+01      0.5148615359E+01
          0                 2           2             5    7     1      -0.9594410308E-01       5    8    1        -0.5275765891E+01      0.1286449200E+02
          0                 3           2             4    7     1       0.6865557882E-01       5    8    1         0.3797329852E+01      0.9318867591E+01
          0                 4           2             4    7     1      -0.2731896615E-02       5    8    1        -0.1552662057E+00      0.3939150613E+00
          0                 5           2             7   13     1       0.1102235958E-03       7   13    1         0.6315125973E-02      0.8201799164E-02
          0                 6           1             7   13     1      -0.4384678835E-05       7   13    1        -0.2581195561E-03      0.2691625630E-03

    ------------------------------------------------
       NWT REQUIRED            6 OUTER ITERATIONS 
       AND A TOTAL OF         11 INNER ITERATIONS.
    ------------------------------------------------

 NO OUTPUT CONTROL FOR STRESS PERIOD   32   TIME STEP   16
 
 SOLVING FOR HEAD 
                                                   Max.-Head-Change                         Max.-Flux-Residual
  Residual-Control   Outer-Iter.   Inner-Iter.     Column Row Layer    Maximum-Head-Change  Column Row Layer    Maximum-Flux-Residual          L2-NORM 
          0                 1           2             5    8     1       0.3986119604E-01       5    8    1         0.2179161520E+01      0.5062124536E+01
          0                 2           2             4    7     1      -0.2157684007E+00       5    8    1        -0.1170419064E+02      0.2862827554E+02
          0                 3           2             4    7     1       0.1469278975E-01       5    8    1         0.8191896173E+00      0.2004811401E+01
          0                 4           2             4    7     1      -0.5846409900E-03       5    8    1        -0.3349609232E-01      0.8206284379E-01
          0                 5           1             4    7     1       0.7208875390E-05       5    6    1         0.4239344064E-03      0.1057628858E-02

    ------------------------------------------------
       NWT REQUIRED            5 OUTER ITERATIONS 
       AND A TOTAL OF          9 INNER ITERATIONS.
    ------------------------------------------------

 NO OUTPUT CONTROL FOR STRESS PERIOD   32   TIME STEP   17
 
 SOLVING FOR HEAD 
                                                   Max.-Head-Change                         Max.-Flux-Residual
  Residual-Control   Outer-Iter.   Inner-Iter.     Column Row Layer    Maximum-Head-Change  Column Row Layer    Maximum-Flux-Residual          L2-NORM 
          0                 1           2             5    8     1       0.4413501218E-01       5    8    1         0.2413987899E+01      0.5558452042E+01
          0                 2           2             5    7     1      -0.9620679517E-01       5    8    1        -0.5292832732E+01      0.1290124728E+02
          0                 3           2             4    7     1       0.6866963173E-01       5    8    1         0.3798524658E+01      0.9321467549E+01
          0                 4           2             4    7     1      -0.2732455772E-02       5    8    1        -0.1553154579E+00      0.3938747570E+00
          0                 5           2             7   13     1       0.1094248058E-03       7   13    1         0.6269385051E-02      0.8167971334E-02
          0                 6           1             7   13     1      -0.4352515731E-05       7   13    1        -0.2562268273E-03      0.2674181665E-03

    ------------------------------------------------
       NWT REQUIRED            6 OUTER ITERATIONS 
       AND A TOTAL OF         11 INNER ITERATIONS.
    ------------------------------------------------

 NO OUTPUT CONTROL FOR STRESS PERIOD   32   TIME STEP   18
 
 SOLVING FOR HEAD 
                                                   Max.-Head-Change                         Max.-Flux-Residual
  Residual-Control   Outer-Iter.   Inner-Iter.     Column Row Layer    Maximum-Head-Change  Column Row Layer    Maximum-Flux-Residual          L2-NORM 
          0                 1           2             5    8     1       0.4285093056E-01       5    8    1         0.2341927557E+01      0.5455938999E+01
          0                 2           2             4    7     1      -0.2159724194E+00       5    8    1        -0.1172046700E+02      0.2866366428E+02
          0                 3           2             4    7     1       0.1470668355E-01       5    8    1         0.8203344223E+00      0.2007263603E+01
          0                 4           2             4    7     1      -0.5851938325E-03       5    8    1        -0.3354344205E-01      0.8216082594E-01
          0                 5           1             4    7     1       0.7215691717E-05       5    6    1         0.4245530690E-03      0.1058375297E-02

    ------------------------------------------------
       NWT REQUIRED            5 OUTER ITERATIONS 
       AND A TOTAL OF          9 INNER ITERATIONS.
    ------------------------------------------------

 NO OUTPUT CONTROL FOR STRESS PERIOD   32   TIME STEP   19
 
 SOLVING FOR HEAD 
                                                   Max.-Head-Change                         Max.-Flux-Residual
  Residual-Control   Outer-Iter.   Inner-Iter.     Column Row Layer    Maximum-Head-Change  Column Row Layer    Maximum-Flux-Residual          L2-NORM 
          0                 1           2             5    8     1       0.4699134703E-01       5    8    1         0.2569359562E+01      0.5938300365E+01
          0                 2           2             5    7     1      -0.9645790888E-01       5    8    1        -0.5308369643E+01      0.1293582789E+02
          0                 3           2             4    7     1       0.6868377522E-01       5    8    1         0.3799612254E+01      0.9323911773E+01
          0                 4           2             4    7     1      -0.2733018540E-02       5    8    1        -0.1553602817E+00      0.3938343379E+00
          0                 5           1             4    7     1       0.3369925921E-04       5    6    1         0.1966080564E-02      0.5352588204E-02

    ------------------------------------------------
       NWT REQUIRED            5 OUTER ITERATIONS 
       AND A TOTAL OF          9 INNER ITERATIONS.
    ------------------------------------------------

 NO OUTPUT CONTROL FOR STRESS PERIOD   32   TIME STEP   20
 
 SOLVING FOR HEAD 
                                                   Max.-Head-Change                         Max.-Flux-Residual
  Residual-Control   Outer-Iter.   Inner-Iter.     Column Row Layer    Maximum-Head-Change  Column Row Layer    Maximum-Flux-Residual          L2-NORM 
          0                 1           2             5    8     1       0.4558190263E-01       5    8    1         0.2490355739E+01      0.5821682857E+01
          0                 2           2             4    7     1      -0.2161770956E+00       5    8    1        -0.1173530958E+02      0.2869700063E+02
          0                 3           2             4    7     1       0.1472062184E-01       5    8    1         0.8213781795E+00      0.2009573853E+01
          0                 4           2             4    7     1      -0.5857484468E-03       5    8    1        -0.3358659236E-01      0.8225311867E-01
          0                 5           1             4    7     1       0.7222530446E-05       5    6    1         0.4251192497E-03      0.1059035815E-02

    ------------------------------------------------
       NWT REQUIRED            5 OUTER ITERATIONS 
       AND A TOTAL OF          9 INNER ITERATIONS.
    ------------------------------------------------

 NO OUTPUT CONTROL FOR STRESS PERIOD   32   TIME STEP   21
 
 SOLVING FOR HEAD 
                                                   Max.-Head-Change                         Max.-Flux-Residual
  Residual-Control   Outer-Iter.   Inner-Iter.     Column Row Layer    Maximum-Head-Change  Column Row Layer    Maximum-Flux-Residual          L2-NORM 
          0                 1           2             5    8     1       0.4960450141E-01       5    8    1         0.2711266304E+01      0.6291274552E+01
          0                 2           2             5    7     1      -0.9669785230E-01       5    8    1        -0.5322560067E+01      0.1296841543E+02
          0                 3           2             4    7     1       0.6869793022E-01       5    8    1         0.3800605597E+01      0.9326213285E+01
          0                 4           2             4    7     1      -0.2733581771E-02       5    8    1        -0.1554012079E+00      0.3937935025E+00
          0                 5           1             4    7     1       0.3370620413E-04       5    6    1         0.1966610456E-02      0.5352821113E-02

    ------------------------------------------------
       NWT REQUIRED            5 OUTER ITERATIONS 
       AND A TOTAL OF          9 INNER ITERATIONS.
    ------------------------------------------------

 NO OUTPUT CONTROL FOR STRESS PERIOD   32   TIME STEP   22
 
 SOLVING FOR HEAD 
                                                   Max.-Head-Change                         Max.-Flux-Residual
  Residual-Control   Outer-Iter.   Inner-Iter.     Column Row Layer    Maximum-Head-Change  Column Row Layer    Maximum-Flux-Residual          L2-NORM 
          0                 1           2             5    8     1       0.4808454393E-01       5    8    1         0.2626150335E+01      0.6162195812E+01
          0                 2           2             4    7     1      -0.2163813905E+00       5    8    1        -0.1174888881E+02      0.2872845240E+02
          0                 3           2             4    7     1       0.1473453393E-01       5    8    1         0.8223329099E+00      0.2011754030E+01
          0                 4           2             4    7     1      -0.5863020198E-03       5    8    1        -0.3362604379E-01      0.8234061148E-01
          0                 5           1             4    7     1       0.7229356631E-05       5    6    1         0.4256388186E-03      0.1059699111E-02

    ------------------------------------------------
       NWT REQUIRED            5 OUTER ITERATIONS 
       AND A TOTAL OF          9 INNER ITERATIONS.
    ------------------------------------------------

 NO OUTPUT CONTROL FOR STRESS PERIOD   32   TIME STEP   23
 
 SOLVING FOR HEAD 
                                                   Max.-Head-Change                         Max.-Flux-Residual
  Residual-Control   Outer-Iter.   Inner-Iter.     Column Row Layer    Maximum-Head-Change  Column Row Layer    Maximum-Flux-Residual          L2-NORM 
          0                 1           2             5    8     1       0.5200323674E-01       5    8    1         0.2841317483E+01      0.6620107258E+01
          0                 2           2             5    7     1      -0.9692703571E-01       5    8    1        -0.5335564940E+01      0.1299917162E+02
          0                 3           2             4    7     1       0.6871203051E-01       5    8    1         0.3801515953E+01      0.9328383644E+01
          0                 4           2             4    7     1      -0.2734142830E-02       5    8    1        -0.1554387030E+00      0.3937529346E+00
          0                 5           1             4    7     1       0.3371312251E-04       5    6    1         0.1967097793E-02      0.5352761437E-02

    ------------------------------------------------
       NWT REQUIRED            5 OUTER ITERATIONS 
       AND A TOTAL OF          9 INNER ITERATIONS.
    ------------------------------------------------

 NO OUTPUT CONTROL FOR STRESS PERIOD   32   TIME STEP   24
 
 SOLVING FOR HEAD 
                                                   Max.-Head-Change                         Max.-Flux-Residual
  Residual-Control   Outer-Iter.   Inner-Iter.     Column Row Layer    Maximum-Head-Change  Column Row Layer    Maximum-Flux-Residual          L2-NORM 
          0                 1           2             5    8     1       0.5038554761E-01       5    8    1         0.2750803613E+01      0.6479991507E+01
          0                 2           2             4    7     1      -0.2165844280E+00       5    8    1        -0.1176135390E+02      0.2875817108E+02
          0                 3           2             4    7     1       0.1474836020E-01       5    8    1         0.8232091352E+00      0.2013813899E+01
          0                 4           2             4    7     1      -0.5868521780E-03       5    8    1        -0.3366223413E-01      0.8242308092E-01
          0                 5           1             4    7     1       0.7236139913E-05       5    8    1         0.4261202432E-03      0.1060311565E-02

    ------------------------------------------------
       NWT REQUIRED            5 OUTER ITERATIONS 
       AND A TOTAL OF          9 INNER ITERATIONS.
    ------------------------------------------------

 NO OUTPUT CONTROL FOR STRESS PERIOD   32   TIME STEP   25
 
 SOLVING FOR HEAD 
                                                   Max.-Head-Change                         Max.-Flux-Residual
  Residual-Control   Outer-Iter.   Inner-Iter.     Column Row Layer    Maximum-Head-Change  Column Row Layer    Maximum-Flux-Residual          L2-NORM 
          0                 1           2             5    8     1       0.5421190351E-01       5    8    1         0.2960873567E+01      0.6927198496E+01
          0                 2           2             5    7     1      -0.9714588777E-01       5    8    1        -0.5347520310E+01      0.1302824209E+02
          0                 3           2             4    7     1       0.6872602140E-01       5    8    1         0.3802352843E+01      0.9330433914E+01
          0                 4           2             4    7     1      -0.2734699541E-02       5    8    1        -0.1554731612E+00      0.3937125802E+00
          0                 5           1             4    7     1       0.3371998689E-04       5    6    1         0.1967547184E-02      0.5352684382E-02

    ------------------------------------------------
       NWT REQUIRED            5 OUTER ITERATIONS 
       AND A TOTAL OF          9 INNER ITERATIONS.
    ------------------------------------------------

 NO OUTPUT CONTROL FOR STRESS PERIOD   32   TIME STEP   26
 
 SOLVING FOR HEAD 
                                                   Max.-Head-Change                         Max.-Flux-Residual
  Residual-Control   Outer-Iter.   Inner-Iter.     Column Row Layer    Maximum-Head-Change  Column Row Layer    Maximum-Flux-Residual          L2-NORM 
          0                 1           2             5    8     1       0.5250752213E-01       5    8    1         0.2865578155E+01      0.6777279930E+01
          0                 2           2             4    7     1      -0.2167854752E+00       5    8    1        -0.1177283114E+02      0.2878629346E+02
          0                 3           2             4    7     1       0.1476205075E-01       5    8    1         0.8240157579E+00      0.2015763259E+01
          0                 4           2             4    7     1      -0.5873969374E-03       5    8    1        -0.3369553378E-01      0.8250128629E-01
          0                 5           1             4    7     1       0.7242857219E-05       5    8    1         0.4265632256E-03      0.1060936975E-02

    ------------------------------------------------
       NWT REQUIRED            5 OUTER ITERATIONS 
       AND A TOTAL OF          9 INNER ITERATIONS.
    ------------------------------------------------

 NO OUTPUT CONTROL FOR STRESS PERIOD   32   TIME STEP   27
 
 SOLVING FOR HEAD 
                                                   Max.-Head-Change                         Max.-Flux-Residual
  Residual-Control   Outer-Iter.   Inner-Iter.     Column Row Layer    Maximum-Head-Change  Column Row Layer    Maximum-Flux-Residual          L2-NORM 
          0                 1           2             5    8     1       0.5625206962E-01       5    8    1         0.3071138273E+01      0.7214682081E+01
          0                 2           2             5    7     1      -0.9735490883E-01       5    8    1        -0.5358546551E+01      0.1305575855E+02
          0                 3           2             4    7     1       0.6873985477E-01       5    8    1         0.3803124695E+01      0.9332373644E+01
          0                 4           2             4    7     1      -0.2735249987E-02       5    8    1        -0.1555049310E+00      0.3936728681E+00
          0                 5           1             4    7     1       0.3372677420E-04       5    6    1         0.1967962670E-02      0.5353110946E-02

    ------------------------------------------------
       NWT REQUIRED            5 OUTER ITERATIONS 
       AND A TOTAL OF          9 INNER ITERATIONS.
    ------------------------------------------------

 NO OUTPUT CONTROL FOR STRESS PERIOD   32   TIME STEP   28
 
 SOLVING FOR HEAD 
                                                   Max.-Head-Change                         Max.-Flux-Residual
  Residual-Control   Outer-Iter.   Inner-Iter.     Column Row Layer    Maximum-Head-Change  Column Row Layer    Maximum-Flux-Residual          L2-NORM 
          0                 1           2             5    8     1       0.5447065874E-01       5    8    1         0.2971600121E+01      0.7056023287E+01
          0                 2           2             4    7     1      -0.2169839273E+00       5    8    1        -0.1178343312E+02      0.2881294311E+02
          0                 3           2             4    7     1       0.1477556444E-01       5    8    1         0.8247607171E+00      0.2017610326E+01
          0                 4           2             4    7     1      -0.5879346603E-03       5    8    1        -0.3372627297E-01      0.8257539536E-01
          0                 5           1             4    7     1       0.7249487713E-05       5    8    1         0.4269711653E-03      0.1061546918E-02

    ------------------------------------------------
       NWT REQUIRED            5 OUTER ITERATIONS 
       AND A TOTAL OF          9 INNER ITERATIONS.
    ------------------------------------------------

 NO OUTPUT CONTROL FOR STRESS PERIOD   32   TIME STEP   29
 
 SOLVING FOR HEAD 
                                                   Max.-Head-Change                         Max.-Flux-Residual
  Residual-Control   Outer-Iter.   Inner-Iter.     Column Row Layer    Maximum-Head-Change  Column Row Layer    Maximum-Flux-Residual          L2-NORM 
          0                 1           2             5    8     1       0.5814223159E-01       5    8    1         0.3173142818E+01      0.7484405179E+01
          0                 2           2             5    7     1      -0.9755455719E-01       5    8    1        -0.5368746784E+01      0.1308183958E+02
          0                 3           2             4    7     1       0.6875349169E-01       5    8    1         0.3803838727E+01      0.9334211540E+01
          0                 4           2             4    7     1      -0.2735792619E-02       5    8    1        -0.1555343114E+00      0.3936337863E+00
          0                 5           1             4    7     1       0.3373346496E-04       5    6    1         0.1968347761E-02      0.5352547057E-02

    ------------------------------------------------
       NWT REQUIRED            5 OUTER ITERATIONS 
       AND A TOTAL OF          9 INNER ITERATIONS.
    ------------------------------------------------

 NO OUTPUT CONTROL FOR STRESS PERIOD   32   TIME STEP   30



 STREAM LISTING     PERIOD     32   STEP       30

 LAYER ROW COL. STREAM  RCH.  FLOW INTO     FLOW TO   FLOW OUT OF   OVRLND.     DIRECT     STREAM       STREAM     STREAM     STREAM   STREAMBED  STREAMBED
                SEG.NO.  NO.  STRM. RCH.    AQUIFER    STRM. RCH.    RUNOFF     PRECIP       ET          HEAD       DEPTH      WIDTH   CONDCTNC.   GRADIENT

   1    1    1     1     1    5.6248E+01  3.5874E-01   5.5890E+01  0.000E+00  0.000E+00  0.000E+00  1.09453E+03  1.479E+00  1.780E+01  8.009E-02  1.493E+00
   1    2    2     1     2    5.5890E+01  5.5549E-01   5.5334E+01  0.000E+00  0.000E+00  0.000E+00  1.08953E+03  1.473E+00  1.774E+01  1.242E-01  1.491E+00
   1    3    3     1     3    5.5334E+01  4.7367E-01   5.4860E+01  0.000E+00  0.000E+00  0.000E+00  1.08389E+03  1.467E+00  1.767E+01  1.060E-01  1.489E+00
   1    3    4     1     4    5.4860E+01  4.3612E-01   5.4424E+01  0.000E+00  0.000E+00  0.000E+00  1.07887E+03  1.461E+00  1.762E+01  9.777E-02  1.487E+00
   1    4    5     2     1    5.2424E+01  3.8056E-01   5.2044E+01  0.000E+00  0.000E+00  0.000E+00  1.07381E+03  1.879E+00  1.200E+01  7.800E-02  1.626E+00
   1    5    6     2     2    5.2044E+01  2.9230E-01   5.1751E+01  0.000E+00  0.000E+00  0.000E+00  1.06838E+03  1.872E+00  1.200E+01  6.000E-02  1.624E+00
   1    6    6     2     3    5.1751E+01  2.9192E-01   5.1459E+01  0.000E+00  0.000E+00  0.000E+00  1.06366E+03  1.865E+00  1.200E+01  6.000E-02  1.622E+00
   1    7    6     2     4    5.1459E+01  2.9154E-01   5.1168E+01  0.000E+00  0.000E+00  0.000E+00  1.05893E+03  1.859E+00  1.200E+01  6.000E-02  1.620E+00
   1    8    6     2     5    5.1168E+01  2.9116E-01   5.0877E+01  0.000E+00  0.000E+00  0.000E+00  1.05421E+03  1.853E+00  1.200E+01  6.000E-02  1.618E+00
   1    3    5     3     1    2.0000E+00  2.8252E-01   1.7175E+00  0.000E+00  0.000E+00  0.000E+00  1.07555E+03  1.909E+00  9.636E+00  7.227E-02  1.955E+00
   1    3    6     3     2    1.7175E+00  2.4905E-01   1.4684E+00  0.000E+00  0.000E+00  0.000E+00  1.07264E+03  1.727E+00  8.909E+00  6.682E-02  1.864E+00
   1    3    7     3     3    1.4684E+00  1.9718E-01   1.2712E+00  0.000E+00  0.000E+00  0.000E+00  1.06987E+03  1.555E+00  8.218E+00  5.547E-02  1.777E+00
   1    4    8     3     4    1.2712E+00  2.2567E-01   1.0456E+00  0.000E+00  0.000E+00  0.000E+00  1.06682E+03  1.364E+00  7.455E+00  6.709E-02  1.682E+00
   1    5    8     3     5    1.0456E+00  1.5790E-01   8.8768E-01  0.000E+00  0.000E+00  0.000E+00  1.06362E+03  1.164E+00  6.655E+00  4.991E-02  1.582E+00
   1    6    8     3     6    8.8768E-01  5.5980E-02   8.3170E-01  0.000E+00  0.000E+00  0.000E+00  1.06158E+03  1.036E+00  6.145E+00  1.844E-02  1.518E+00
   1    5   10     4     1    1.0000E+01  9.0919E-02   9.9091E+00  0.000E+00  0.000E+00  0.000E+00  1.07836E+03  6.368E-01  1.000E+01  2.500E-02  1.212E+00
   1    5    9     4     2    9.9091E+00  1.8158E-01   9.7275E+00  0.000E+00  0.000E+00  0.000E+00  1.07154E+03  6.315E-01  1.000E+01  5.000E-02  1.211E+00
   1    6    8     4     3    9.7275E+00  1.2689E-01   9.6006E+00  0.000E+00  0.000E+00  0.000E+00  1.06381E+03  6.256E-01  1.000E+01  3.500E-02  1.209E+00
   1    6    8     5     1    1.0432E+01  2.2686E-01   1.0205E+01  0.000E+00  0.000E+00  0.000E+00  1.05868E+03  6.790E-01  1.542E+01  6.166E-02  1.226E+00
   1    7    7     5     2    1.0205E+01  2.7894E-01   9.9265E+00  0.000E+00  0.000E+00  0.000E+00  1.05417E+03  6.732E-01  1.519E+01  7.594E-02  1.224E+00
   1    8    7     5     3    9.9265E+00  1.9221E-01   9.7343E+00  0.000E+00  0.000E+00  0.000E+00  1.04992E+03  6.676E-01  1.497E+01  5.241E-02  1.223E+00
   1    8    6     5     4    9.7343E+00  1.3577E-01   9.5985E+00  0.000E+00  0.000E+00  0.000E+00  1.04691E+03  6.637E-01  1.482E+01  3.706E-02  1.221E+00
   1    9    6     6     1    9.5985E+00  2.2097E-01   9.3776E+00  0.000E+00  0.000E+00  0.000E+00  1.04341E+03  6.828E-01  1.200E+01  6.000E-02  1.228E+00
   1   10    7     6     2    9.3776E+00  2.2039E-01   9.1572E+00  0.000E+00  0.000E+00  0.000E+00  1.03885E+03  6.732E-01  1.200E+01  6.000E-02  1.224E+00
   1   11    7     6     3    9.1572E+00  2.1981E-01   8.9374E+00  0.000E+00  0.000E+00  0.000E+00  1.03430E+03  6.636E-01  1.200E+01  6.000E-02  1.221E+00
   1   12    7     6     4    8.9374E+00  2.1923E-01   8.7181E+00  0.000E+00  0.000E+00  0.000E+00  1.02974E+03  6.539E-01  1.200E+01  6.000E-02  1.218E+00
   1   13    7     6     5    8.7181E+00 -9.5374E-02   8.8135E+00  0.000E+00  0.000E+00  0.000E+00  1.02656E+03  6.511E-01  1.200E+01  2.400E-01 -1.325E-01
   1   14    9     7     1    1.5000E+02  1.3448E+00   1.4866E+02  0.000E+00  0.000E+00  0.000E+00  1.03987E+03  2.288E+00  5.529E+01  5.593E-01  8.015E-01
   1   13    8     7     2    1.4866E+02  1.8637E+00   1.4679E+02  0.000E+00  0.000E+00  0.000E+00  1.03478E+03  2.279E+00  5.526E+01  6.148E-01  1.011E+00
   1   13    7     7     3    1.4679E+02  1.5256E+00   1.4527E+02  0.000E+00  0.000E+00  0.000E+00  1.02969E+03  2.270E+00  5.522E+01  5.584E-01  9.106E-01
   1   13    6     8     1    1.5408E+02  8.8100E-01   1.5320E+02  0.000E+00  0.000E+00  0.000E+00  1.02472E+03  2.842E+00  4.121E+01  4.200E-01  6.993E-01
   1   13    5     8     2    1.5320E+02  1.5338E-01   1.5305E+02  0.000E+00  0.000E+00  0.000E+00  1.01846E+03  2.839E+00  4.116E+01  4.194E-01  1.219E-01
   1   13    4     8     3    1.5305E+02 -2.4936E+00   1.5554E+02  0.000E+00  0.000E+00  0.000E+00  1.01222E+03  2.847E+00  4.128E+01  4.206E+00 -1.976E-01
   1   13    3     8     4    1.5554E+02 -3.7035E+00   1.5924E+02  0.000E+00  0.000E+00  0.000E+00  1.00599E+03  2.868E+00  4.159E+01  4.238E+00 -2.913E-01
   1   13    2     8     5    1.5924E+02 -2.6694E+00   1.6191E+02  0.000E+00  0.000E+00  0.000E+00  9.99765E+02  2.890E+00  4.190E+01  4.270E+00 -2.084E-01
   1   13    1     8     6    1.6191E+02 -2.0921E+00   1.6400E+02  0.000E+00  0.000E+00  0.000E+00  9.94781E+02  2.906E+00  4.213E+01  2.576E+00 -2.707E-01
   1    8    6     9     1    5.0877E+01  0.0000E+00   5.0877E+01  0.000E+00  0.000E+00  0.000E+00  1.08476E+03  6.014E+00  4.000E+00  0.000E+00  3.005E+00
   1    8    5     9     2    5.0877E+01  0.0000E+00   5.0877E+01  0.000E+00  0.000E+00  0.000E+00  1.08426E+03  6.014E+00  4.000E+00  0.000E+00  3.005E+00





UNSATURATED ZONE PACKAGE VOLUMETRIC BUDGET FOR  TIME STEP    30 STRESS PERIOD   32
  ------------------------------------------------------------------------------



     CUMULATIVE VOLUMES      L**3       RATES FOR THIS TIME STEP      L**3/T
     ------------------                 ------------------------

           IN:                                      IN:
           ---                                      ---
        INFILTRATION =  1368269418.1538          INFILTRATION =          61.4657

          OUT:                                     OUT:
          ----                                     ----
              UZF ET =  1113862357.5316                UZF ET =          60.8175
        UZF RECHARGE =     2931317.4664          UZF RECHARGE =       0.0000E+00

            IN - OUT =   251475743.1558              IN - OUT =           0.6482

          STORAGE:                                 STORAGE:
          --------                                 --------
      STORAGE CHANGE =   251476921.5366        STORAGE CHANGE =           0.6482

 PERCENT DISCREPANCY IS DIFFERENCE BETWEEN IN-OUT MINUS CHANGE IN STORAGE
 DIVIDED BY THE AVERAGE OF IN AND OUT TIMES 100

 PERCENT DISCREPANCY =          -0.00     PERCENT DISCREPANCY =           0.00






1
  VOLUMETRIC BUDGET FOR AGRICULTURAL FIELDS AT  END OF TIME STEP   30, STRESS PERIOD  32
  ------------------------------------------------------------------------------

     CUMULATIVE VOLUMES      L**3       RATES FOR THIS TIME STEP      L**3/T
     ------------------                 ------------------------

           IN:                                      IN:
           ---                                      ---
               AG WELLS  =   494374176.0000                 AG WELLS  =           9.7404
      DIVERSION SEGMENTS =   804715584.0000        DIVERSION SEGMENTS =          50.8768
           GW IRRIGATION =           0.0000             GW IRRIGATION =           0.0000
           SW IRRIGATION =           0.0000             SW IRRIGATION =           0.0000
        SYSTEM LOSSES GW =           0.0000          SYSTEM LOSSES GW =           0.0000
        SYSTEM LOSSES SW =           0.0000          SYSTEM LOSSES SW =           0.0000

                TOTAL IN =  1299089792.0000                  TOTAL IN =          60.6172

          OUT:                                     OUT:
          ----                                     ----
               AG WELLS  =           0.0000                 AG WELLS  =           0.0000
      DIVERSION SEGMENTS =           0.0000        DIVERSION SEGMENTS =           0.0000
           GW IRRIGATION =   494374176.0000             GW IRRIGATION =           9.7404
           SW IRRIGATION =   804731584.0000             SW IRRIGATION =          50.8778
        SYSTEM LOSSES GW =           0.0000          SYSTEM LOSSES GW =           0.0000
        SYSTEM LOSSES SW =           0.0000          SYSTEM LOSSES SW =           0.0000

               TOTAL OUT =  1299105792.0000                 TOTAL OUT =          60.6182

                IN - OUT =      -16000.0000                  IN - OUT =      -1.0147E-03

     PERCENT DISCREPANCY =          -0.00         PERCENT DISCREPANCY =          -0.00



1
  VOLUMETRIC BUDGET FOR ENTIRE MODEL AT END OF TIME STEP   30, STRESS PERIOD  32
  ------------------------------------------------------------------------------

     CUMULATIVE VOLUMES      L**3       RATES FOR THIS TIME STEP      L**3/T
     ------------------                 ------------------------

           IN:                                      IN:
           ---                                      ---
             STORAGE     =   774034880.0000               STORAGE     =          14.2064
       CONSTANT HEAD     =           0.0000         CONSTANT HEAD     =           0.0000
     HEAD DEP BOUNDS     =    23333100.0000       HEAD DEP BOUNDS     =           0.2864
      STREAM LEAKAGE     =   981521920.0000        STREAM LEAKAGE     =          12.4219
        UZF RECHARGE     =     2931318.2500          UZF RECHARGE     =           0.0000
               GW ET     =           0.0000                 GW ET     =           0.0000
     SURFACE LEAKAGE     =           0.0000       SURFACE LEAKAGE     =           0.0000
           AG WELLS      =           0.0000             AG WELLS      =           0.0000

                TOTAL IN =  1781821312.0000                  TOTAL IN =          26.9146

          OUT:                                     OUT:
          ----                                     ----
             STORAGE     =   386593952.0000               STORAGE     =           5.8314
       CONSTANT HEAD     =           0.0000         CONSTANT HEAD     =           0.0000
     HEAD DEP BOUNDS     =    23742810.0000       HEAD DEP BOUNDS     =           0.2885
      STREAM LEAKAGE     =   874451200.0000        STREAM LEAKAGE     =          11.0540
        UZF RECHARGE     =           0.0000          UZF RECHARGE     =           0.0000
               GW ET     =     2673563.7500                 GW ET     =           0.0000
     SURFACE LEAKAGE     =           0.0000       SURFACE LEAKAGE     =           0.0000
           AG WELLS      =   494374176.0000             AG WELLS      =           9.7404

               TOTAL OUT =  1781835648.0000                 TOTAL OUT =          26.9144

                IN - OUT =      -14336.0000                  IN - OUT =       2.4223E-04

     PERCENT DISCREPANCY =          -0.00         PERCENT DISCREPANCY =           0.00






         TIME SUMMARY AT END OF TIME STEP   30 IN STRESS PERIOD   32
                    SECONDS     MINUTES      HOURS       DAYS        YEARS
                    -----------------------------------------------------------
   TIME STEP LENGTH  87667.      1461.1      24.352      1.0147     2.77799E-03
 STRESS PERIOD TIME 2.63000E+06  43833.      730.56      30.440     8.33397E-02
         TOTAL TIME 8.16164E+07 1.36027E+06  22671.      944.63      2.5863    
1
1
                            STRESS PERIOD NO.   33, LENGTH =   2630000.    
                            -----------------------------------------------

                              NUMBER OF TIME STEPS =    30

                               MULTIPLIER FOR DELT =     1.000

                            INITIAL TIME STEP SIZE =   87666.66    

 REUSING NON-PARAMETER GHB CELLS FROM LAST STRESS PERIOD

      2 GHB CELLS

 REUSING STREAM SEGMENT DATA FROM LAST STRESS PERIOD



            AREAL INFILTRATION RATE
 READING ON UNIT   19 WITH FORMAT: (FREE)              

            1           2           3           4           5           6           7           8           9          10
 ........................................................................................................................
   1   1.0000E-10  2.0000E-10   0.000       0.000       0.000       0.000       0.000       0.000       0.000       0.000    
   2   2.0000E-10  1.0000E-10  2.0000E-10   0.000       0.000      8.0000E-10  8.0000E-10  5.0000E-10   0.000       0.000    
   3    0.000      5.0000E-10  1.0000E-10  1.0000E-10  8.0000E-10  8.0000E-10  5.0000E-10  5.0000E-10   0.000       0.000    
   4   8.0000E-10  5.0000E-10  1.0000E-10  1.0000E-10  1.0000E-10  1.0000E-10  1.0000E-10  1.0000E-10  2.0000E-10   0.000    
   5   8.0000E-10  5.0000E-10  1.0000E-10  1.0000E-10  1.0000E-10  1.0000E-10  1.0000E-10  1.0000E-10  1.0000E-10  1.0000E-10
   6   8.0000E-10  5.0000E-10  5.0000E-10  2.0000E-10  2.0000E-10  1.0000E-10  1.0000E-10  1.0000E-10  1.0000E-10  5.0000E-10
   7   8.0000E-10  5.0000E-10  5.0000E-10  2.0000E-10  2.0000E-10  1.0000E-10  1.0000E-10  2.0000E-10  2.0000E-10   0.000    
   8    0.000      5.0000E-10  5.0000E-10  2.0000E-10  2.0000E-10  1.0000E-10  1.0000E-10  2.0000E-10  5.0000E-10   0.000    
   9    0.000      5.0000E-10  5.0000E-10  2.0000E-10  2.0000E-10  1.0000E-10  1.0000E-10  2.0000E-10  5.0000E-10   0.000    
  10    0.000      5.0000E-10  5.0000E-10  2.0000E-10  2.0000E-10  1.0000E-10  1.0000E-10  2.0000E-10  5.0000E-10  8.0000E-10
  11    0.000      1.0000E-10  1.0000E-10  1.0000E-10  1.0000E-10  1.0000E-10  1.0000E-10  2.0000E-10  5.0000E-10   0.000    
  12   1.0000E-10  1.0000E-10  1.0000E-10  1.0000E-10  1.0000E-10  1.0000E-10  1.0000E-10  1.0000E-10  2.0000E-10   0.000    
  13   1.0000E-10  1.0000E-10  2.0000E-10  2.0000E-10  2.0000E-10  2.0000E-10  2.0000E-10  1.0000E-10  1.0000E-10   0.000    
  14    0.000      2.0000E-10  5.0000E-10  5.0000E-10  5.0000E-10  5.0000E-10  5.0000E-10  2.0000E-10  1.0000E-10   0.000    
  15    0.000       0.000      8.0000E-10  8.0000E-10  8.0000E-10  8.0000E-10   0.000       0.000       0.000       0.000    

                  ET RATE =  3.250000E-07

 USING ET EXTINCTION DEPTH FROM PREVIOUS STRESS PERIOD. CURRENT PERIOD IS:      33

 USING EXTINCTION WATER CONTENT FROM PREVIOUS STRESS PERIOD. CURRENT PERIOD IS:      33

 USING AIR ENTRY PRESSURE FROM PREVIOUS STRESS PERIOD. CURRENT PERIOD IS:      33

 USING ROOT PRESSURE HEAD FROM PREVIOUS STRESS PERIOD. CURRENT PERIOD IS:      33

 USING ROOT ACTIVITY FROM PREVIOUS STRESS PERIOD. CURRENT PERIOD IS:      33

 PROCESSING AG STRESS PERIOD DATA

 READING AG STRESS PERIOD DATA

 READING IRRIGATION SEGMENT

 READING IRRIGATION WELL

 READING SUPPLEMENTAL WELL

 END PROCESSING AG STRESS PERIOD DATA OPTIONS
 
 SOLVING FOR HEAD 
                                                   Max.-Head-Change                         Max.-Flux-Residual
  Residual-Control   Outer-Iter.   Inner-Iter.     Column Row Layer    Maximum-Head-Change  Column Row Layer    Maximum-Flux-Residual          L2-NORM 
          0                 1           2             5    8     1       0.5629185599E-01       5    8    1         0.3069820707E+01      0.7313258131E+01
          0                 2           2             4    7     1      -0.1542348473E+00       5    8    1        -0.8414849393E+01      0.2058876162E+02
          0                 3           2             4    7     1       0.1581542485E-01       5    8    1         0.8821360501E+00      0.2153869832E+01
          0                 4           2             4    7     1      -0.6293118528E-03       5    8    1        -0.3607384694E-01      0.8816563609E-01
          0                 5           1             4    7     1       0.7759686054E-05       5    8    1         0.4567841588E-03      0.1132445456E-02

    ------------------------------------------------
       NWT REQUIRED            5 OUTER ITERATIONS 
       AND A TOTAL OF          9 INNER ITERATIONS.
    ------------------------------------------------

 NO OUTPUT CONTROL FOR STRESS PERIOD   33   TIME STEP    1
 
 SOLVING FOR HEAD 
                                                   Max.-Head-Change                         Max.-Flux-Residual
  Residual-Control   Outer-Iter.   Inner-Iter.     Column Row Layer    Maximum-Head-Change  Column Row Layer    Maximum-Flux-Residual          L2-NORM 
          0                 1           2             5    8     1       0.5791060768E-01       5    8    1         0.3158285131E+01      0.7435820450E+01
          0                 2           2             5    6     1      -0.3724691018E-01       5    8    1        -0.2056202330E+01      0.4944889411E+01
          0                 3           2             4    7     1       0.3251344243E-01       5    8    1         0.1803654743E+01      0.4424825048E+01
          0                 4           2             4    7     1      -0.1289115990E-02       5    8    1        -0.7349002070E-01      0.1797479940E+00
          0                 5           2             4   13     1      -0.1817268962E-03       4   13    1        -0.1131668340E-01      0.1950223657E-01
          0                 6           2             4   13     1      -0.1780235524E-03       4   13    1        -0.1108496082E-01      0.1915630731E-01
          0                 7           2             4    7     1       0.1382173619E-02       5    6    1         0.8056120721E-01      0.1982511145E+00
          0                 8           1             4    7     1       0.2030029433E-04       5    6    1         0.1184126795E-02      0.2906821025E-02

    ------------------------------------------------
       NWT REQUIRED            8 OUTER ITERATIONS 
       AND A TOTAL OF         15 INNER ITERATIONS.
    ------------------------------------------------

 NO OUTPUT CONTROL FOR STRESS PERIOD   33   TIME STEP    2
 
 SOLVING FOR HEAD 
                                                   Max.-Head-Change                         Max.-Flux-Residual
  Residual-Control   Outer-Iter.   Inner-Iter.     Column Row Layer    Maximum-Head-Change  Column Row Layer    Maximum-Flux-Residual          L2-NORM 
          0                 1           2             5    8     1       0.5523287444E-01       5    8    1         0.3009383636E+01      0.7161521342E+01
          0                 2           2             4    7     1      -0.1171194519E+00       5    8    1        -0.6409385568E+01      0.1566268096E+02
          0                 3           2             4    7     1       0.2000234096E-01       5    8    1         0.1112220776E+01      0.2717699857E+01
          0                 4           2             4    7     1      -0.7959140097E-03       5    8    1        -0.4548153610E-01      0.1112774894E+00
          0                 5           1             4    7     1       0.9813961413E-05       5    6    1         0.5758351540E-03      0.1434454091E-02

    ------------------------------------------------
       NWT REQUIRED            5 OUTER ITERATIONS 
       AND A TOTAL OF          9 INNER ITERATIONS.
    ------------------------------------------------

 NO OUTPUT CONTROL FOR STRESS PERIOD   33   TIME STEP    3
 
 SOLVING FOR HEAD 
                                                   Max.-Head-Change                         Max.-Flux-Residual
  Residual-Control   Outer-Iter.   Inner-Iter.     Column Row Layer    Maximum-Head-Change  Column Row Layer    Maximum-Flux-Residual          L2-NORM 
          0                 1           2             5    8     1       0.5567027134E-01       5    8    1         0.3032588747E+01      0.7237197725E+01
          0                 2           2             5    6     1      -0.4653628349E-01       5    8    1        -0.2565303621E+01      0.6213168141E+01
          0                 3           2             4    7     1       0.4409975226E-01       5    8    1         0.2441618412E+01      0.5992874462E+01
          0                 4           2             4    7     1      -0.1754781349E-02       5    8    1        -0.9983644751E-01      0.2465040059E+00
          0                 5           1             4    7     1       0.2163719667E-04       5    6    1         0.1263612762E-02      0.3350747698E-02

    ------------------------------------------------
       NWT REQUIRED            5 OUTER ITERATIONS 
       AND A TOTAL OF          9 INNER ITERATIONS.
    ------------------------------------------------

 NO OUTPUT CONTROL FOR STRESS PERIOD   33   TIME STEP    4
 
 SOLVING FOR HEAD 
                                                   Max.-Head-Change                         Max.-Flux-Residual
  Residual-Control   Outer-Iter.   Inner-Iter.     Column Row Layer    Maximum-Head-Change  Column Row Layer    Maximum-Flux-Residual          L2-NORM 
          0                 1           2             5    8     1       0.5315709139E-01       5    8    1         0.2892961592E+01      0.6981458151E+01
          0                 2           2             4    7     1      -0.1230375784E+00       5    8    1        -0.6709989406E+01      0.1642013980E+02
          0                 3           2             4    7     1       0.1474597558E-01       5    8    1         0.8210111163E+00      0.2006062694E+01
          0                 4           2             4    7     1      -0.5867573104E-03       5    8    1        -0.3357426713E-01      0.8218352963E-01
          0                 5           1             4    7     1       0.7234970254E-05       5    6    1         0.4251829055E-03      0.1067091022E-02

    ------------------------------------------------
       NWT REQUIRED            5 OUTER ITERATIONS 
       AND A TOTAL OF          9 INNER ITERATIONS.
    ------------------------------------------------

 NO OUTPUT CONTROL FOR STRESS PERIOD   33   TIME STEP    5
 
 SOLVING FOR HEAD 
                                                   Max.-Head-Change                         Max.-Flux-Residual
  Residual-Control   Outer-Iter.   Inner-Iter.     Column Row Layer    Maximum-Head-Change  Column Row Layer    Maximum-Flux-Residual          L2-NORM 
          0                 1           2             5    8     1       0.5408360268E-01       5    8    1         0.2943330418E+01      0.7104888132E+01
          0                 2           2             5    6     1      -0.4473826057E-01       5    8    1        -0.2465309914E+01      0.5981934648E+01
          0                 3           2             4    7     1       0.4234051582E-01       5    8    1         0.2343550866E+01      0.5752910550E+01
          0                 4           2             4    7     1      -0.1684778848E-02       5    8    1        -0.9582639069E-01      0.2366331359E+00
          0                 5           1             4    7     1       0.2077403712E-04       5    6    1         0.1212878602E-02      0.3216042179E-02

    ------------------------------------------------
       NWT REQUIRED            5 OUTER ITERATIONS 
       AND A TOTAL OF          9 INNER ITERATIONS.
    ------------------------------------------------

 NO OUTPUT CONTROL FOR STRESS PERIOD   33   TIME STEP    6
 
 SOLVING FOR HEAD 
                                                   Max.-Head-Change                         Max.-Flux-Residual
  Residual-Control   Outer-Iter.   Inner-Iter.     Column Row Layer    Maximum-Head-Change  Column Row Layer    Maximum-Flux-Residual          L2-NORM 
          0                 1           2             5    6     1       0.5172961900E-01       5    8    1         0.2810513866E+01      0.6860027426E+01
          0                 2           2             4    7     1      -0.1214216749E+00       5    8    1        -0.6609966965E+01      0.1618780015E+02
          0                 3           2             4    7     1       0.1629941623E-01       5    8    1         0.9057853632E+00      0.2214268491E+01
          0                 4           2             4    7     1      -0.6485704476E-03       5    6    1        -0.3704008159E-01      0.9068617433E-01
          0                 5           1             4    7     1       0.7997152129E-05       5    6    1         0.4690383198E-03      0.1173028562E-02

    ------------------------------------------------
       NWT REQUIRED            5 OUTER ITERATIONS 
       AND A TOTAL OF          9 INNER ITERATIONS.
    ------------------------------------------------

 NO OUTPUT CONTROL FOR STRESS PERIOD   33   TIME STEP    7
 
 SOLVING FOR HEAD 
                                                   Max.-Head-Change                         Max.-Flux-Residual
  Residual-Control   Outer-Iter.   Inner-Iter.     Column Row Layer    Maximum-Head-Change  Column Row Layer    Maximum-Flux-Residual          L2-NORM 
          0                 1           2             5    6     1       0.5263064586E-01       5    8    1         0.2861680162E+01      0.6980655651E+01
          0                 2           2             5    6     1      -0.4508604364E-01       5    8    1        -0.2483482888E+01      0.6039231020E+01
          0                 3           2             4    7     1       0.4285728848E-01       5    8    1         0.2371160832E+01      0.5821706749E+01
          0                 4           2             4    7     1      -0.1705342001E-02       5    6    1        -0.9695594103E-01      0.2394629113E+00
          0                 5           1             4    7     1       0.2102758942E-04       5    6    1         0.1227161319E-02      0.3254977259E-02

    ------------------------------------------------
       NWT REQUIRED            5 OUTER ITERATIONS 
       AND A TOTAL OF          9 INNER ITERATIONS.
    ------------------------------------------------

 NO OUTPUT CONTROL FOR STRESS PERIOD   33   TIME STEP    8
 
 SOLVING FOR HEAD 
                                                   Max.-Head-Change                         Max.-Flux-Residual
  Residual-Control   Outer-Iter.   Inner-Iter.     Column Row Layer    Maximum-Head-Change  Column Row Layer    Maximum-Flux-Residual          L2-NORM 
          0                 1           2             5    6     1       0.5047426551E-01       5    6    1         0.2735318684E+01      0.6746509457E+01
          0                 2           2             4    7     1      -0.1220044423E+00       5    6    1        -0.6629359243E+01      0.1624752939E+02
          0                 3           2             4    7     1       0.1585133567E-01       5    6    1         0.8802330213E+00      0.2152604161E+01
          0                 4           2             4    7     1      -0.6307408341E-03       5    6    1        -0.3599604675E-01      0.8816674965E-01
          0                 5           1             4    7     1       0.7777305876E-05       5    6    1         0.4558004150E-03      0.1141555647E-02

    ------------------------------------------------
       NWT REQUIRED            5 OUTER ITERATIONS 
       AND A TOTAL OF          9 INNER ITERATIONS.
    ------------------------------------------------

 NO OUTPUT CONTROL FOR STRESS PERIOD   33   TIME STEP    9
 
 SOLVING FOR HEAD 
                                                   Max.-Head-Change                         Max.-Flux-Residual
  Residual-Control   Outer-Iter.   Inner-Iter.     Column Row Layer    Maximum-Head-Change  Column Row Layer    Maximum-Flux-Residual          L2-NORM 
          0                 1           2             5    6     1       0.5149067772E-01       5    8    1         0.2793390078E+01      0.6877126249E+01
          0                 2           2             5    6     1      -0.4483407940E-01       5    8    1        -0.2468894900E+01      0.6014027336E+01
          0                 3           2             4    7     1       0.4271212124E-01       5    8    1         0.2362380586E+01      0.5800913027E+01
          0                 4           2             4    7     1      -0.1699565617E-02       5    6    1        -0.9659797858E-01      0.2386072709E+00
          0                 5           1             4    7     1       0.2095636412E-04       5    6    1         0.1222614653E-02      0.3242992661E-02

    ------------------------------------------------
       NWT REQUIRED            5 OUTER ITERATIONS 
       AND A TOTAL OF          9 INNER ITERATIONS.
    ------------------------------------------------

 NO OUTPUT CONTROL FOR STRESS PERIOD   33   TIME STEP   10
 
 SOLVING FOR HEAD 
                                                   Max.-Head-Change                         Max.-Flux-Residual
  Residual-Control   Outer-Iter.   Inner-Iter.     Column Row Layer    Maximum-Head-Change  Column Row Layer    Maximum-Flux-Residual          L2-NORM 
          0                 1           2             5    6     1       0.4941456180E-01       5    6    1         0.2676071989E+01      0.6651846169E+01
          0                 2           2             4    7     1      -0.1219295038E+00       5    6    1        -0.6615538251E+01      0.1622273122E+02
          0                 3           2             4    7     1       0.1598936993E-01       5    6    1         0.8871585755E+00      0.2170191963E+01
          0                 4           2             4    7     1      -0.6362333812E-03       5    6    1        -0.3627887744E-01      0.8888437513E-01
          0                 5           1             4    7     1       0.7845031278E-05       5    6    1         0.4593558194E-03      0.1150507338E-02

    ------------------------------------------------
       NWT REQUIRED            5 OUTER ITERATIONS 
       AND A TOTAL OF          9 INNER ITERATIONS.
    ------------------------------------------------

 NO OUTPUT CONTROL FOR STRESS PERIOD   33   TIME STEP   11
 
 SOLVING FOR HEAD 
                                                   Max.-Head-Change                         Max.-Flux-Residual
  Residual-Control   Outer-Iter.   Inner-Iter.     Column Row Layer    Maximum-Head-Change  Column Row Layer    Maximum-Flux-Residual          L2-NORM 
          0                 1           2             5    6     1       0.5049743086E-01       5    6    1         0.2735149971E+01      0.6787214753E+01
          0                 2           2             5    7     1      -0.4483100351E-01       5    6    1        -0.2465344490E+01      0.6014239914E+01
          0                 3           2             4    7     1       0.4276088725E-01       5    6    1         0.2364405613E+01      0.5806550754E+01
          0                 4           2             4    7     1      -0.1701506111E-02       5    6    1        -0.9668133050E-01      0.2388389696E+00
          0                 5           1             4    7     1       0.2098029071E-04       5    6    1         0.1223653958E-02      0.3246269757E-02

    ------------------------------------------------
       NWT REQUIRED            5 OUTER ITERATIONS 
       AND A TOTAL OF          9 INNER ITERATIONS.
    ------------------------------------------------

 NO OUTPUT CONTROL FOR STRESS PERIOD   33   TIME STEP   12
 
 SOLVING FOR HEAD 
                                                   Max.-Head-Change                         Max.-Flux-Residual
  Residual-Control   Outer-Iter.   Inner-Iter.     Column Row Layer    Maximum-Head-Change  Column Row Layer    Maximum-Flux-Residual          L2-NORM 
          0                 1           2             5    6     1       0.4849113036E-01       5    6    1         0.2624449148E+01      0.6569752273E+01
          0                 2           2             4    7     1      -0.1220361388E+00       5    6    1        -0.6612693009E+01      0.1622372240E+02
          0                 3           2             4    7     1       0.1595465048E-01       5    6    1         0.8846393185E+00      0.2164594190E+01
          0                 4           2             4    7     1      -0.6348518644E-03       5    6    1        -0.3617556357E-01      0.8865503420E-01
          0                 5           1             4    7     1       0.7827996622E-05       5    6    1         0.4580277866E-03      0.1147692166E-02

    ------------------------------------------------
       NWT REQUIRED            5 OUTER ITERATIONS 
       AND A TOTAL OF          9 INNER ITERATIONS.
    ------------------------------------------------

 NO OUTPUT CONTROL FOR STRESS PERIOD   33   TIME STEP   13
 
 SOLVING FOR HEAD 
                                                   Max.-Head-Change                         Max.-Flux-Residual
  Residual-Control   Outer-Iter.   Inner-Iter.     Column Row Layer    Maximum-Head-Change  Column Row Layer    Maximum-Flux-Residual          L2-NORM 
          0                 1           2             5    6     1       0.4964141248E-01       5    6    1         0.2687289429E+01      0.6710078024E+01
          0                 2           2             5    7     1      -0.4480422234E-01       5    6    1        -0.2459891191E+01      0.6007988323E+01
          0                 3           2             4    7     1       0.4275206800E-01       5    6    1         0.2363356550E+01      0.5804502701E+01
          0                 4           2             4    7     1      -0.1701155203E-02       5    6    1        -0.9663823739E-01      0.2387547876E+00
          0                 5           1             4    7     1       0.2097596414E-04       5    6    1         0.1223095206E-02      0.3245016220E-02

    ------------------------------------------------
       NWT REQUIRED            5 OUTER ITERATIONS 
       AND A TOTAL OF          9 INNER ITERATIONS.
    ------------------------------------------------

 NO OUTPUT CONTROL FOR STRESS PERIOD   33   TIME STEP   14
 
 SOLVING FOR HEAD 
                                                   Max.-Head-Change                         Max.-Flux-Residual
  Residual-Control   Outer-Iter.   Inner-Iter.     Column Row Layer    Maximum-Head-Change  Column Row Layer    Maximum-Flux-Residual          L2-NORM 
          0                 1           2             5    6     1       0.4769546133E-01       5    6    1         0.2579957962E+01      0.6499335753E+01
          0                 2           2             4    7     1      -0.1220794441E+00       5    6    1        -0.6607563524E+01      0.1621801087E+02
          0                 3           2             4    7     1       0.1596994526E-01       5    6    1         0.8849579685E+00      0.2165858514E+01
          0                 4           2             4    7     1      -0.6354604686E-03       5    6    1        -0.3618832357E-01      0.8870600354E-01
          0                 5           1             4    7     1       0.7835500944E-05       5    6    1         0.4581709620E-03      0.1148234580E-02

    ------------------------------------------------
       NWT REQUIRED            5 OUTER ITERATIONS 
       AND A TOTAL OF          9 INNER ITERATIONS.
    ------------------------------------------------

 NO OUTPUT CONTROL FOR STRESS PERIOD   33   TIME STEP   15
 
 SOLVING FOR HEAD 
                                                   Max.-Head-Change                         Max.-Flux-Residual
  Residual-Control   Outer-Iter.   Inner-Iter.     Column Row Layer    Maximum-Head-Change  Column Row Layer    Maximum-Flux-Residual          L2-NORM 
          0                 1           2             5    6     1       0.4890108050E-01       5    6    1         0.2645887020E+01      0.6643496223E+01
          0                 2           2             5    7     1      -0.4479414258E-01       5    6    1        -0.2455946771E+01      0.6004494977E+01
          0                 3           2             4    7     1       0.4275950110E-01       5    6    1         0.2363276183E+01      0.5804764953E+01
          0                 4           2             4    7     1      -0.1701450997E-02       5    6    1        -0.9663477576E-01      0.2387655816E+00
          0                 5           1             4    7     1       0.2097961168E-04       4    8    1         0.1223104699E-02      0.3245443298E-02

    ------------------------------------------------
       NWT REQUIRED            5 OUTER ITERATIONS 
       AND A TOTAL OF          9 INNER ITERATIONS.
    ------------------------------------------------

 NO OUTPUT CONTROL FOR STRESS PERIOD   33   TIME STEP   16
 
 SOLVING FOR HEAD 
                                                   Max.-Head-Change                         Max.-Flux-Residual
  Residual-Control   Outer-Iter.   Inner-Iter.     Column Row Layer    Maximum-Head-Change  Column Row Layer    Maximum-Flux-Residual          L2-NORM 
          0                 1           2             5    6     1       0.4700757742E-01       5    6    1         0.2541481493E+01      0.6438630533E+01
          0                 2           2             4    7     1      -0.1221325063E+00       5    6    1        -0.6603915744E+01      0.1621502725E+02
          0                 3           2             4    7     1       0.1596994909E-01       5    6    1         0.8845003939E+00      0.2165158499E+01
          0                 4           2             4    7     1      -0.6354606282E-03       5    6    1        -0.3616937547E-01      0.8867676881E-01
          0                 5           1             4    7     1       0.7835503184E-05       5    6    1         0.4579150022E-03      0.1147808295E-02

    ------------------------------------------------
       NWT REQUIRED            5 OUTER ITERATIONS 
       AND A TOTAL OF          9 INNER ITERATIONS.
    ------------------------------------------------

 NO OUTPUT CONTROL FOR STRESS PERIOD   33   TIME STEP   17
 
 SOLVING FOR HEAD 
                                                   Max.-Head-Change                         Max.-Flux-Residual
  Residual-Control   Outer-Iter.   Inner-Iter.     Column Row Layer    Maximum-Head-Change  Column Row Layer    Maximum-Flux-Residual          L2-NORM 
          0                 1           2             5    6     1       0.4826206050E-01       5    6    1         0.2610135095E+01      0.6586088186E+01
          0                 2           2             5    7     1      -0.4478044086E-01       5    6    1        -0.2452314430E+01      0.6000947001E+01
          0                 3           2             4    7     1       0.4276160174E-01       5    6    1         0.2362964699E+01      0.5804397689E+01
          0                 4           2             4    7     1      -0.1701534602E-02       5    6    1        -0.9662188408E-01      0.2387498836E+00
          0                 5           1             4    7     1       0.2098064232E-04       4    8    1         0.1223037985E-02      0.3244951583E-02

    ------------------------------------------------
       NWT REQUIRED            5 OUTER ITERATIONS 
       AND A TOTAL OF          9 INNER ITERATIONS.
    ------------------------------------------------

 NO OUTPUT CONTROL FOR STRESS PERIOD   33   TIME STEP   18
 
 SOLVING FOR HEAD 
                                                   Max.-Head-Change                         Max.-Flux-Residual
  Residual-Control   Outer-Iter.   Inner-Iter.     Column Row Layer    Maximum-Head-Change  Column Row Layer    Maximum-Flux-Residual          L2-NORM 
          0                 1           2             5    6     1       0.4641421284E-01       5    6    1         0.2508274437E+01      0.6386369364E+01
          0                 2           2             4    7     1      -0.1221749637E+00       5    6    1        -0.6600536453E+01      0.1621191113E+02
          0                 3           2             4    7     1       0.1597391427E-01       5    6    1         0.8843203305E+00      0.2165079715E+01
          0                 4           2             4    7     1      -0.6356184130E-03       5    6    1        -0.3616180088E-01      0.8867290971E-01
          0                 5           1             4    7     1       0.7837448433E-05       5    6    1         0.4578047383E-03      0.1147723067E-02

    ------------------------------------------------
       NWT REQUIRED            5 OUTER ITERATIONS 
       AND A TOTAL OF          9 INNER ITERATIONS.
    ------------------------------------------------

 NO OUTPUT CONTROL FOR STRESS PERIOD   33   TIME STEP   19
 
 SOLVING FOR HEAD 
                                                   Max.-Head-Change                         Max.-Flux-Residual
  Residual-Control   Outer-Iter.   Inner-Iter.     Column Row Layer    Maximum-Head-Change  Column Row Layer    Maximum-Flux-Residual          L2-NORM 
          0                 1           2             5    6     1       0.4771099016E-01       5    6    1         0.2579284662E+01      0.6536573016E+01
          0                 2           2             5    7     1      -0.4476924005E-01       5    6    1        -0.2449246141E+01      0.5998075664E+01
          0                 3           2             4    7     1       0.4276476254E-01       5    6    1         0.2362766608E+01      0.5804257458E+01
          0                 4           2             4    7     1      -0.1701660390E-02       5    6    1        -0.9661364608E-01      0.2387449043E+00
          0                 5           1             4    7     1       0.2098219328E-04       4    8    1         0.1223016908E-02      0.3245466179E-02

    ------------------------------------------------
       NWT REQUIRED            5 OUTER ITERATIONS 
       AND A TOTAL OF          9 INNER ITERATIONS.
    ------------------------------------------------

 NO OUTPUT CONTROL FOR STRESS PERIOD   33   TIME STEP   20
 
 SOLVING FOR HEAD 
                                                   Max.-Head-Change                         Max.-Flux-Residual
  Residual-Control   Outer-Iter.   Inner-Iter.     Column Row Layer    Maximum-Head-Change  Column Row Layer    Maximum-Flux-Residual          L2-NORM 
          0                 1           2             5    6     1       0.4590284457E-01       5    6    1         0.2479635738E+01      0.6341367097E+01
          0                 2           2             4    7     1      -0.1222137609E+00       5    6    1        -0.6597689809E+01      0.1620942261E+02
          0                 3           2             4    7     1       0.1597625527E-01       5    6    1         0.8841019663E+00      0.2164857509E+01
          0                 4           2             4    7     1      -0.6357115695E-03       5    6    1        -0.3615268316E-01      0.8866316852E-01
          0                 5           1             4    7     1       0.7838596922E-05       5    6    1         0.4576765100E-03      0.1147568716E-02

    ------------------------------------------------
       NWT REQUIRED            5 OUTER ITERATIONS 
       AND A TOTAL OF          9 INNER ITERATIONS.
    ------------------------------------------------

 NO OUTPUT CONTROL FOR STRESS PERIOD   33   TIME STEP   21
 
 SOLVING FOR HEAD 
                                                   Max.-Head-Change                         Max.-Flux-Residual
  Residual-Control   Outer-Iter.   Inner-Iter.     Column Row Layer    Maximum-Head-Change  Column Row Layer    Maximum-Flux-Residual          L2-NORM 
          0                 1           2             5    6     1       0.4723663244E-01       5    6    1         0.2552706795E+01      0.6493900041E+01
          0                 2           2             4    7     1      -0.4478038279E-01       5    6    1        -0.2446583407E+01      0.5995587600E+01
          0                 3           2             4    7     1       0.4276717627E-01       5    6    1         0.2362575209E+01      0.5804086188E+01
          0                 4           2             4    7     1      -0.1701756450E-02       5    6    1        -0.9660569668E-01      0.2387418709E+00
          0                 5           1             4    7     1       0.2098337761E-04       4    8    1         0.1222988111E-02      0.3247811057E-02

    ------------------------------------------------
       NWT REQUIRED            5 OUTER ITERATIONS 
       AND A TOTAL OF          9 INNER ITERATIONS.
    ------------------------------------------------

 NO OUTPUT CONTROL FOR STRESS PERIOD   33   TIME STEP   22
 
 SOLVING FOR HEAD 
                                                   Max.-Head-Change                         Max.-Flux-Residual
  Residual-Control   Outer-Iter.   Inner-Iter.     Column Row Layer    Maximum-Head-Change  Column Row Layer    Maximum-Flux-Residual          L2-NORM 
          0                 1           2             5    6     1       0.4546306036E-01       5    6    1         0.2454982762E+01      0.6302661698E+01
          0                 2           2             4    7     1      -0.1222477308E+00       5    6    1        -0.6595219797E+01      0.1620726954E+02
          0                 3           2             4    7     1       0.1597867310E-01       5    6    1         0.8839325792E+00      0.2164713778E+01
          0                 4           2             4    7     1      -0.6358077825E-03       5    6    1        -0.3614558790E-01      0.8865668320E-01
          0                 5           1             4    7     1       0.7839783271E-05       5    6    1         0.4575752173E-03      0.1147298359E-02

    ------------------------------------------------
       NWT REQUIRED            5 OUTER ITERATIONS 
       AND A TOTAL OF          9 INNER ITERATIONS.
    ------------------------------------------------

 NO OUTPUT CONTROL FOR STRESS PERIOD   33   TIME STEP   23
 
 SOLVING FOR HEAD 
                                                   Max.-Head-Change                         Max.-Flux-Residual
  Residual-Control   Outer-Iter.   Inner-Iter.     Column Row Layer    Maximum-Head-Change  Column Row Layer    Maximum-Flux-Residual          L2-NORM 
          0                 1           2             5    6     1       0.4682893334E-01       5    6    1         0.2529839195E+01      0.6457152465E+01
          0                 2           2             4    7     1      -0.4481235653E-01       5    6    1        -0.2444298370E+01      0.5993498963E+01
          0                 3           2             4    7     1       0.4276943432E-01       5    6    1         0.2362416925E+01      0.5803959230E+01
          0                 4           2             4    7     1      -0.1701846312E-02       5    6    1        -0.9659911420E-01      0.2387369204E+00
          0                 5           1             4    7     1       0.2098448567E-04       4    8    1         0.1222966954E-02      0.3247653697E-02

    ------------------------------------------------
       NWT REQUIRED            5 OUTER ITERATIONS 
       AND A TOTAL OF          9 INNER ITERATIONS.
    ------------------------------------------------

 NO OUTPUT CONTROL FOR STRESS PERIOD   33   TIME STEP   24
 
 SOLVING FOR HEAD 
                                                   Max.-Head-Change                         Max.-Flux-Residual
  Residual-Control   Outer-Iter.   Inner-Iter.     Column Row Layer    Maximum-Head-Change  Column Row Layer    Maximum-Flux-Residual          L2-NORM 
          0                 1           2             5    6     1       0.4508538612E-01       5    6    1         0.2433785988E+01      0.6269402945E+01
          0                 2           2             4    7     1      -0.1222779541E+00       5    6    1        -0.6593102077E+01      0.1620547535E+02
          0                 3           2             4    7     1       0.1598070557E-01       5    6    1         0.8837808746E+00      0.2164577261E+01
          0                 4           2             4    7     1      -0.6358886612E-03       5    6    1        -0.3613923295E-01      0.8865052959E-01
          0                 5           1             4    7     1       0.7840780651E-05       5    6    1         0.4574844772E-03      0.1147292274E-02

    ------------------------------------------------
       NWT REQUIRED            5 OUTER ITERATIONS 
       AND A TOTAL OF          9 INNER ITERATIONS.
    ------------------------------------------------

 NO OUTPUT CONTROL FOR STRESS PERIOD   33   TIME STEP   25
 
 SOLVING FOR HEAD 
                                                   Max.-Head-Change                         Max.-Flux-Residual
  Residual-Control   Outer-Iter.   Inner-Iter.     Column Row Layer    Maximum-Head-Change  Column Row Layer    Maximum-Flux-Residual          L2-NORM 
          0                 1           2             5    6     1       0.4647942495E-01       5    6    1         0.2510208880E+01      0.6425570983E+01
          0                 2           2             4    7     1      -0.4484070317E-01       5    6    1        -0.2442334673E+01      0.5991742764E+01
          0                 3           2             4    7     1       0.4277139904E-01       5    6    1         0.2362278751E+01      0.5803848093E+01
          0                 4           2             4    7     1      -0.1701924502E-02       5    6    1        -0.9659336530E-01      0.2387324907E+00
          0                 5           1             4    7     1       0.2098545000E-04       4    7    1         0.1222998936E-02      0.3247508274E-02

    ------------------------------------------------
       NWT REQUIRED            5 OUTER ITERATIONS 
       AND A TOTAL OF          9 INNER ITERATIONS.
    ------------------------------------------------

 NO OUTPUT CONTROL FOR STRESS PERIOD   33   TIME STEP   26
 
 SOLVING FOR HEAD 
                                                   Max.-Head-Change                         Max.-Flux-Residual
  Residual-Control   Outer-Iter.   Inner-Iter.     Column Row Layer    Maximum-Head-Change  Column Row Layer    Maximum-Flux-Residual          L2-NORM 
          0                 1           2             5    6     1       0.4476226377E-01       5    6    1         0.2415622821E+01      0.6240921819E+01
          0                 2           2             4    7     1      -0.1223047863E+00       5    6    1        -0.6591284852E+01      0.1620397922E+02
          0                 3           2             4    7     1       0.1598254984E-01       5    6    1         0.8836527413E+00      0.2164467251E+01
          0                 4           2             4    7     1      -0.6359620504E-03       5    6    1        -0.3613385682E-01      0.8864552323E-01
          0                 5           1             4    7     1       0.7841685507E-05       5    6    1         0.4574071438E-03      0.1147199197E-02

    ------------------------------------------------
       NWT REQUIRED            5 OUTER ITERATIONS 
       AND A TOTAL OF          9 INNER ITERATIONS.
    ------------------------------------------------

 NO OUTPUT CONTROL FOR STRESS PERIOD   33   TIME STEP   27
 
 SOLVING FOR HEAD 
                                                   Max.-Head-Change                         Max.-Flux-Residual
  Residual-Control   Outer-Iter.   Inner-Iter.     Column Row Layer    Maximum-Head-Change  Column Row Layer    Maximum-Flux-Residual          L2-NORM 
          0                 1           2             5    6     1       0.4618078791E-01       5    6    1         0.2493406928E+01      0.6398494891E+01
          0                 2           2             4    7     1      -0.4486596172E-01       5    6    1        -0.2440655000E+01      0.5990288020E+01
          0                 3           2             4    7     1       0.4277317233E-01       5    6    1         0.2362161649E+01      0.5803759573E+01
          0                 4           2             4    7     1      -0.1701995074E-02       5    6    1        -0.9658848786E-01      0.2387289543E+00
          0                 5           1             4    7     1       0.2098632024E-04       4    7    1         0.1223050152E-02      0.3247891593E-02

    ------------------------------------------------
       NWT REQUIRED            5 OUTER ITERATIONS 
       AND A TOTAL OF          9 INNER ITERATIONS.
    ------------------------------------------------

 NO OUTPUT CONTROL FOR STRESS PERIOD   33   TIME STEP   28
 
 SOLVING FOR HEAD 
                                                   Max.-Head-Change                         Max.-Flux-Residual
  Residual-Control   Outer-Iter.   Inner-Iter.     Column Row Layer    Maximum-Head-Change  Column Row Layer    Maximum-Flux-Residual          L2-NORM 
          0                 1           2             5    6     1       0.4448673505E-01       5    6    1         0.2400105527E+01      0.6216584235E+01
          0                 2           2             4    7     1      -0.1223287325E+00       5    6    1        -0.6589734118E+01      0.1620275613E+02
          0                 3           2             4    7     1       0.1598417985E-01       5    6    1         0.8835424423E+00      0.2164373724E+01
          0                 4           2             4    7     1      -0.6360269135E-03       5    6    1        -0.3612922312E-01      0.8864110398E-01
          0                 5           1             4    7     1       0.7842485517E-05       5    7    1         0.4573768713E-03      0.1147084020E-02

    ------------------------------------------------
       NWT REQUIRED            5 OUTER ITERATIONS 
       AND A TOTAL OF          9 INNER ITERATIONS.
    ------------------------------------------------

 NO OUTPUT CONTROL FOR STRESS PERIOD   33   TIME STEP   29
 
 SOLVING FOR HEAD 
                                                   Max.-Head-Change                         Max.-Flux-Residual
  Residual-Control   Outer-Iter.   Inner-Iter.     Column Row Layer    Maximum-Head-Change  Column Row Layer    Maximum-Flux-Residual          L2-NORM 
          0                 1           2             5    6     1       0.4592670262E-01       5    6    1         0.2479081035E+01      0.6375356037E+01
          0                 2           2             4    7     1      -0.4488849382E-01       5    6    1        -0.2439221976E+01      0.5989094256E+01
          0                 3           2             4    7     1       0.4277474025E-01       5    6    1         0.2362060860E+01      0.5803685887E+01
          0                 4           2             4    7     1      -0.1702057471E-02       5    6    1        -0.9658428601E-01      0.2387262071E+00
          0                 5           1             4    7     1       0.2098708945E-04       4    7    1         0.1223095198E-02      0.3247711389E-02

    ------------------------------------------------
       NWT REQUIRED            5 OUTER ITERATIONS 
       AND A TOTAL OF          9 INNER ITERATIONS.
    ------------------------------------------------

 NO OUTPUT CONTROL FOR STRESS PERIOD   33   TIME STEP   30



 STREAM LISTING     PERIOD     33   STEP       30

 LAYER ROW COL. STREAM  RCH.  FLOW INTO     FLOW TO   FLOW OUT OF   OVRLND.     DIRECT     STREAM       STREAM     STREAM     STREAM   STREAMBED  STREAMBED
                SEG.NO.  NO.  STRM. RCH.    AQUIFER    STRM. RCH.    RUNOFF     PRECIP       ET          HEAD       DEPTH      WIDTH   CONDCTNC.   GRADIENT

   1    1    1     1     1    4.5749E+01  3.2289E-01   4.5426E+01  0.000E+00  0.000E+00  0.000E+00  1.09442E+03  1.372E+00  1.641E+01  7.386E-02  1.457E+00
   1    2    2     1     2    4.5426E+01  5.0022E-01   4.4925E+01  0.000E+00  0.000E+00  0.000E+00  1.08943E+03  1.369E+00  1.636E+01  1.145E-01  1.456E+00
   1    3    3     1     3    4.4925E+01  4.2678E-01   4.4499E+01  0.000E+00  0.000E+00  0.000E+00  1.08378E+03  1.366E+00  1.629E+01  9.776E-02  1.455E+00
   1    3    4     1     4    4.4499E+01  3.9314E-01   4.4106E+01  0.000E+00  0.000E+00  0.000E+00  1.07877E+03  1.363E+00  1.624E+01  9.011E-02  1.454E+00
   1    4    5     2     1    4.2106E+01  3.6245E-01   4.1743E+01  0.000E+00  0.000E+00  0.000E+00  1.07358E+03  1.647E+00  1.200E+01  7.800E-02  1.549E+00
   1    5    6     2     2    4.1743E+01  2.7835E-01   4.1465E+01  0.000E+00  0.000E+00  0.000E+00  1.06815E+03  1.639E+00  1.200E+01  6.000E-02  1.546E+00
   1    6    6     2     3    4.1465E+01  2.7796E-01   4.1187E+01  0.000E+00  0.000E+00  0.000E+00  1.06343E+03  1.633E+00  1.200E+01  6.000E-02  1.544E+00
   1    7    6     2     4    4.1187E+01  2.7756E-01   4.0909E+01  0.000E+00  0.000E+00  0.000E+00  1.05870E+03  1.626E+00  1.200E+01  6.000E-02  1.542E+00
   1    8    6     2     5    4.0909E+01  2.7716E-01   4.0632E+01  0.000E+00  0.000E+00  0.000E+00  1.05398E+03  1.619E+00  1.200E+01  6.000E-02  1.540E+00
   1    3    5     3     1    2.0000E+00  2.8252E-01   1.7175E+00  0.000E+00  0.000E+00  0.000E+00  1.07555E+03  1.909E+00  9.636E+00  7.227E-02  1.955E+00
   1    3    6     3     2    1.7175E+00  2.4905E-01   1.4684E+00  0.000E+00  0.000E+00  0.000E+00  1.07264E+03  1.727E+00  8.909E+00  6.682E-02  1.864E+00
   1    3    7     3     3    1.4684E+00  1.9718E-01   1.2712E+00  0.000E+00  0.000E+00  0.000E+00  1.06987E+03  1.555E+00  8.218E+00  5.547E-02  1.777E+00
   1    4    8     3     4    1.2712E+00  2.2567E-01   1.0456E+00  0.000E+00  0.000E+00  0.000E+00  1.06682E+03  1.364E+00  7.455E+00  6.709E-02  1.682E+00
   1    5    8     3     5    1.0456E+00  1.5790E-01   8.8768E-01  0.000E+00  0.000E+00  0.000E+00  1.06362E+03  1.164E+00  6.655E+00  4.991E-02  1.582E+00
   1    6    8     3     6    8.8768E-01  5.5980E-02   8.3170E-01  0.000E+00  0.000E+00  0.000E+00  1.06158E+03  1.036E+00  6.145E+00  1.844E-02  1.518E+00
   1    5   10     4     1    1.0000E+01  9.0919E-02   9.9091E+00  0.000E+00  0.000E+00  0.000E+00  1.07836E+03  6.368E-01  1.000E+01  2.500E-02  1.212E+00
   1    5    9     4     2    9.9091E+00  1.8158E-01   9.7275E+00  0.000E+00  0.000E+00  0.000E+00  1.07154E+03  6.315E-01  1.000E+01  5.000E-02  1.211E+00
   1    6    8     4     3    9.7275E+00  1.2689E-01   9.6006E+00  0.000E+00  0.000E+00  0.000E+00  1.06381E+03  6.256E-01  1.000E+01  3.500E-02  1.209E+00
   1    6    8     5     1    1.0432E+01  2.2686E-01   1.0205E+01  0.000E+00  0.000E+00  0.000E+00  1.05868E+03  6.790E-01  1.542E+01  6.166E-02  1.226E+00
   1    7    7     5     2    1.0205E+01  2.7894E-01   9.9265E+00  0.000E+00  0.000E+00  0.000E+00  1.05417E+03  6.732E-01  1.519E+01  7.594E-02  1.224E+00
   1    8    7     5     3    9.9265E+00  1.9221E-01   9.7343E+00  0.000E+00  0.000E+00  0.000E+00  1.04992E+03  6.676E-01  1.497E+01  5.241E-02  1.223E+00
   1    8    6     5     4    9.7343E+00  1.3577E-01   9.5985E+00  0.000E+00  0.000E+00  0.000E+00  1.04691E+03  6.637E-01  1.482E+01  3.706E-02  1.221E+00
   1    9    6     6     1    2.3935E+01  2.5115E-01   2.3684E+01  0.000E+00  0.000E+00  0.000E+00  1.04391E+03  1.186E+00  1.200E+01  6.000E-02  1.395E+00
   1   10    7     6     2    2.3684E+01  2.5070E-01   2.3433E+01  0.000E+00  0.000E+00  0.000E+00  1.03936E+03  1.178E+00  1.200E+01  6.000E-02  1.393E+00
   1   11    7     6     3    2.3433E+01  2.5025E-01   2.3183E+01  0.000E+00  0.000E+00  0.000E+00  1.03481E+03  1.171E+00  1.200E+01  6.000E-02  1.390E+00
   1   12    7     6     4    2.3183E+01  2.4979E-01   2.2933E+01  0.000E+00  0.000E+00  0.000E+00  1.03025E+03  1.163E+00  1.200E+01  6.000E-02  1.388E+00
   1   13    7     6     5    2.2933E+01  2.9295E-03   2.2930E+01  0.000E+00  0.000E+00  0.000E+00  1.02707E+03  1.159E+00  1.200E+01  2.400E-02  4.069E-02
   1   14    9     7     1    1.5000E+02  1.3456E+00   1.4865E+02  0.000E+00  0.000E+00  0.000E+00  1.03987E+03  2.288E+00  5.529E+01  5.593E-01  8.019E-01
   1   13    8     7     2    1.4865E+02  1.8688E+00   1.4679E+02  0.000E+00  0.000E+00  0.000E+00  1.03478E+03  2.279E+00  5.526E+01  6.148E-01  1.013E+00
   1   13    7     7     3    1.4679E+02  1.5318E+00   1.4525E+02  0.000E+00  0.000E+00  0.000E+00  1.02969E+03  2.270E+00  5.522E+01  5.584E-01  9.143E-01
   1   13    6     8     1    1.6818E+02  9.6248E-01   1.6722E+02  0.000E+00  0.000E+00  0.000E+00  1.02481E+03  2.937E+00  4.259E+01  4.340E-01  7.392E-01
   1   13    5     8     2    1.6722E+02  2.1056E-01   1.6701E+02  0.000E+00  0.000E+00  0.000E+00  1.01856E+03  2.933E+00  4.253E+01  4.334E-01  1.619E-01
   1   13    4     8     3    1.6701E+02 -2.2228E+00   1.6923E+02  0.000E+00  0.000E+00  0.000E+00  1.01231E+03  2.940E+00  4.263E+01  4.344E+00 -1.706E-01
   1   13    3     8     4    1.6923E+02 -3.4770E+00   1.7271E+02  0.000E+00  0.000E+00  0.000E+00  1.00608E+03  2.959E+00  4.290E+01  4.372E+00 -2.651E-01
   1   13    2     8     5    1.7271E+02 -2.4199E+00   1.7513E+02  0.000E+00  0.000E+00  0.000E+00  9.99853E+02  2.978E+00  4.317E+01  4.400E+00 -1.833E-01
   1   13    1     8     6    1.7513E+02 -1.9025E+00   1.7703E+02  0.000E+00  0.000E+00  0.000E+00  9.94866E+02  2.991E+00  4.337E+01  2.652E+00 -2.391E-01
   1    8    6     9     1    2.6296E+01  0.0000E+00   2.6296E+01  0.000E+00  0.000E+00  0.000E+00  1.08280E+03  4.048E+00  4.000E+00  0.000E+00  2.349E+00
   1    8    5     9     2    2.6296E+01  0.0000E+00   2.6296E+01  0.000E+00  0.000E+00  0.000E+00  1.08230E+03  4.048E+00  4.000E+00  0.000E+00  2.349E+00





UNSATURATED ZONE PACKAGE VOLUMETRIC BUDGET FOR  TIME STEP    30 STRESS PERIOD   33
  ------------------------------------------------------------------------------



     CUMULATIVE VOLUMES      L**3       RATES FOR THIS TIME STEP      L**3/T
     ------------------                 ------------------------

           IN:                                      IN:
           ---                                      ---
        INFILTRATION =  1506684361.1552          INFILTRATION =          27.1438

          OUT:                                     OUT:
          ----                                     ----
              UZF ET =  1244312085.6580                UZF ET =          49.6308
        UZF RECHARGE =     2931317.4664          UZF RECHARGE =       0.0000E+00

            IN - OUT =   259440958.0308              IN - OUT =         -22.4870

          STORAGE:                                 STORAGE:
          --------                                 --------
      STORAGE CHANGE =   259442132.9379        STORAGE CHANGE =         -22.4870

 PERCENT DISCREPANCY IS DIFFERENCE BETWEEN IN-OUT MINUS CHANGE IN STORAGE
 DIVIDED BY THE AVERAGE OF IN AND OUT TIMES 100

 PERCENT DISCREPANCY =          -0.00     PERCENT DISCREPANCY =           0.00






1
  VOLUMETRIC BUDGET FOR AGRICULTURAL FIELDS AT  END OF TIME STEP   30, STRESS PERIOD  33
  ------------------------------------------------------------------------------

     CUMULATIVE VOLUMES      L**3       RATES FOR THIS TIME STEP      L**3/T
     ------------------                 ------------------------

           IN:                                      IN:
           ---                                      ---
               AG WELLS  =   541938240.0000                 AG WELLS  =           0.0000
      DIVERSION SEGMENTS =   893336192.0000        DIVERSION SEGMENTS =          26.2958
           GW IRRIGATION =           0.0000             GW IRRIGATION =           0.0000
           SW IRRIGATION =           0.0000             SW IRRIGATION =           0.0000
        SYSTEM LOSSES GW =           0.0000          SYSTEM LOSSES GW =           0.0000
        SYSTEM LOSSES SW =           0.0000          SYSTEM LOSSES SW =           0.0000

                TOTAL IN =  1435274496.0000                  TOTAL IN =          26.2958

          OUT:                                     OUT:
          ----                                     ----
               AG WELLS  =           0.0000                 AG WELLS  =           0.0000
      DIVERSION SEGMENTS =           0.0000        DIVERSION SEGMENTS =           0.0000
           GW IRRIGATION =   541938240.0000             GW IRRIGATION =           0.0000
           SW IRRIGATION =   893353728.0000             SW IRRIGATION =          26.2963
        SYSTEM LOSSES GW =           0.0000          SYSTEM LOSSES GW =           0.0000
        SYSTEM LOSSES SW =           0.0000          SYSTEM LOSSES SW =           0.0000

               TOTAL OUT =  1435291904.0000                 TOTAL OUT =          26.2963

                IN - OUT =      -17408.0000                  IN - OUT =      -5.2643E-04

     PERCENT DISCREPANCY =          -0.00         PERCENT DISCREPANCY =          -0.00



1
  VOLUMETRIC BUDGET FOR ENTIRE MODEL AT END OF TIME STEP   30, STRESS PERIOD  33
  ------------------------------------------------------------------------------

     CUMULATIVE VOLUMES      L**3       RATES FOR THIS TIME STEP      L**3/T
     ------------------                 ------------------------

           IN:                                      IN:
           ---                                      ---
             STORAGE     =   837348544.0000               STORAGE     =          12.2440
       CONSTANT HEAD     =           0.0000         CONSTANT HEAD     =           0.0000
     HEAD DEP BOUNDS     =    24086326.0000       HEAD DEP BOUNDS     =           0.2864
      STREAM LEAKAGE     =  1013912512.0000        STREAM LEAKAGE     =          12.4420
        UZF RECHARGE     =     2931318.2500          UZF RECHARGE     =           0.0000
               GW ET     =           0.0000                 GW ET     =           0.0000
     SURFACE LEAKAGE     =           0.0000       SURFACE LEAKAGE     =           0.0000
           AG WELLS      =           0.0000             AG WELLS      =           0.0000

                TOTAL IN =  1878278784.0000                  TOTAL IN =          24.9724

          OUT:                                     OUT:
          ----                                     ----
             STORAGE     =   406974080.0000               STORAGE     =          14.6619
       CONSTANT HEAD     =           0.0000         CONSTANT HEAD     =           0.0000
     HEAD DEP BOUNDS     =    24500984.0000       HEAD DEP BOUNDS     =           0.2882
      STREAM LEAKAGE     =   902205824.0000        STREAM LEAKAGE     =          10.0222
        UZF RECHARGE     =           0.0000          UZF RECHARGE     =           0.0000
               GW ET     =     2673563.7500                 GW ET     =           0.0000
     SURFACE LEAKAGE     =           0.0000       SURFACE LEAKAGE     =           0.0000
           AG WELLS      =   541938240.0000             AG WELLS      =           0.0000

               TOTAL OUT =  1878292736.0000                 TOTAL OUT =          24.9723

                IN - OUT =      -13952.0000                  IN - OUT =       1.4114E-04

     PERCENT DISCREPANCY =          -0.00         PERCENT DISCREPANCY =           0.00






         TIME SUMMARY AT END OF TIME STEP   30 IN STRESS PERIOD   33
                    SECONDS     MINUTES      HOURS       DAYS        YEARS
                    -----------------------------------------------------------
   TIME STEP LENGTH  87667.      1461.1      24.352      1.0147     2.77799E-03
 STRESS PERIOD TIME 2.63000E+06  43833.      730.56      30.440     8.33397E-02
         TOTAL TIME 8.42463E+07 1.40410E+06  23402.      975.07      2.6696    
1
1
                            STRESS PERIOD NO.   34, LENGTH =   2630000.    
                            -----------------------------------------------

                              NUMBER OF TIME STEPS =    30

                               MULTIPLIER FOR DELT =     1.000

                            INITIAL TIME STEP SIZE =   87666.66    

 REUSING NON-PARAMETER GHB CELLS FROM LAST STRESS PERIOD

      2 GHB CELLS

 REUSING STREAM SEGMENT DATA FROM LAST STRESS PERIOD



            AREAL INFILTRATION RATE
 READING ON UNIT   19 WITH FORMAT: (FREE)              

            1           2           3           4           5           6           7           8           9          10
 ........................................................................................................................
   1   1.0000E-10  2.0000E-10   0.000       0.000       0.000       0.000       0.000       0.000       0.000       0.000    
   2   2.0000E-10  1.0000E-10  2.0000E-10   0.000       0.000      8.0000E-10  8.0000E-10  5.0000E-10   0.000       0.000    
   3    0.000      5.0000E-10  1.0000E-10  1.0000E-10  8.0000E-10  8.0000E-10  5.0000E-10  5.0000E-10   0.000       0.000    
   4   8.0000E-10  5.0000E-10  1.0000E-10  1.0000E-10  1.0000E-10  1.0000E-10  1.0000E-10  1.0000E-10  2.0000E-10   0.000    
   5   8.0000E-10  5.0000E-10  1.0000E-10  1.0000E-10  1.0000E-10  1.0000E-10  1.0000E-10  1.0000E-10  1.0000E-10  1.0000E-10
   6   8.0000E-10  5.0000E-10  5.0000E-10  2.0000E-10  2.0000E-10  1.0000E-10  1.0000E-10  1.0000E-10  1.0000E-10  5.0000E-10
   7   8.0000E-10  5.0000E-10  5.0000E-10  2.0000E-10  2.0000E-10  1.0000E-10  1.0000E-10  2.0000E-10  2.0000E-10   0.000    
   8    0.000      5.0000E-10  5.0000E-10  2.0000E-10  2.0000E-10  1.0000E-10  1.0000E-10  2.0000E-10  5.0000E-10   0.000    
   9    0.000      5.0000E-10  5.0000E-10  2.0000E-10  2.0000E-10  1.0000E-10  1.0000E-10  2.0000E-10  5.0000E-10   0.000    
  10    0.000      5.0000E-10  5.0000E-10  2.0000E-10  2.0000E-10  1.0000E-10  1.0000E-10  2.0000E-10  5.0000E-10  8.0000E-10
  11    0.000      1.0000E-10  1.0000E-10  1.0000E-10  1.0000E-10  1.0000E-10  1.0000E-10  2.0000E-10  5.0000E-10   0.000    
  12   1.0000E-10  1.0000E-10  1.0000E-10  1.0000E-10  1.0000E-10  1.0000E-10  1.0000E-10  1.0000E-10  2.0000E-10   0.000    
  13   1.0000E-10  1.0000E-10  2.0000E-10  2.0000E-10  2.0000E-10  2.0000E-10  2.0000E-10  1.0000E-10  1.0000E-10   0.000    
  14    0.000      2.0000E-10  5.0000E-10  5.0000E-10  5.0000E-10  5.0000E-10  5.0000E-10  2.0000E-10  1.0000E-10   0.000    
  15    0.000       0.000      8.0000E-10  8.0000E-10  8.0000E-10  8.0000E-10   0.000       0.000       0.000       0.000    

                  ET RATE =  7.500000E-08

 USING ET EXTINCTION DEPTH FROM PREVIOUS STRESS PERIOD. CURRENT PERIOD IS:      34

 USING EXTINCTION WATER CONTENT FROM PREVIOUS STRESS PERIOD. CURRENT PERIOD IS:      34

 USING AIR ENTRY PRESSURE FROM PREVIOUS STRESS PERIOD. CURRENT PERIOD IS:      34

 USING ROOT PRESSURE HEAD FROM PREVIOUS STRESS PERIOD. CURRENT PERIOD IS:      34

 USING ROOT ACTIVITY FROM PREVIOUS STRESS PERIOD. CURRENT PERIOD IS:      34

 PROCESSING AG STRESS PERIOD DATA

 READING AG STRESS PERIOD DATA

 READING IRRIGATION SEGMENT

 READING IRRIGATION WELL

 READING SUPPLEMENTAL WELL

 END PROCESSING AG STRESS PERIOD DATA OPTIONS
 
 SOLVING FOR HEAD 
                                                   Max.-Head-Change                         Max.-Flux-Residual
  Residual-Control   Outer-Iter.   Inner-Iter.     Column Row Layer    Maximum-Head-Change  Column Row Layer    Maximum-Flux-Residual          L2-NORM 
          0                 1           2             5    6     1       0.4425277987E-01       5    6    1         0.2386898210E+01      0.6195881735E+01
          0                 2           2             5    6     1      -0.6118453870E-02       5    6    1        -0.3384123514E+00      0.8512534363E+00
          0                 3           2             4    7     1       0.2149884485E-02       5    6    1         0.1201328825E+00      0.2935573192E+00
          0                 4           1             4    7     1      -0.1009115617E-03       5    6    1        -0.5784822594E-02      0.1412485447E-01
          0                 5           1             4    7     1      -0.1953664661E-04       4    7    1        -0.1107910432E-02      0.2898386012E-02

    ------------------------------------------------
       NWT REQUIRED            5 OUTER ITERATIONS 
       AND A TOTAL OF          8 INNER ITERATIONS.
    ------------------------------------------------

 NO OUTPUT CONTROL FOR STRESS PERIOD   34   TIME STEP    1
 
 SOLVING FOR HEAD 
                                                   Max.-Head-Change                         Max.-Flux-Residual
  Residual-Control   Outer-Iter.   Inner-Iter.     Column Row Layer    Maximum-Head-Change  Column Row Layer    Maximum-Flux-Residual          L2-NORM 
          0                 1           2             5    7     1       0.4269508118E-01       5    6    1         0.2300046966E+01      0.5993494328E+01
          0                 2           2             4    7     1      -0.3886376574E-01       5    6    1        -0.2100003173E+01      0.5147414329E+01
          0                 3           2             4    7     1       0.3654023376E-01       5    6    1         0.2017000007E+01      0.4937650456E+01
          0                 4           2             4    7     1      -0.1453832182E-02       5    7    1        -0.8247494520E-01      0.1962907333E+00
          0                 5           1             5    8     1      -0.1624639750E-03       5    8    1        -0.9782767765E-02      0.1011376407E-01
          0                 6           1             5    8     1      -0.2474457210E-04       5    8    1        -0.1485170975E-02      0.1485538237E-02

    ------------------------------------------------
       NWT REQUIRED            6 OUTER ITERATIONS 
       AND A TOTAL OF         10 INNER ITERATIONS.
    ------------------------------------------------

 NO OUTPUT CONTROL FOR STRESS PERIOD   34   TIME STEP    2
 
 SOLVING FOR HEAD 
                                                   Max.-Head-Change                         Max.-Flux-Residual
  Residual-Control   Outer-Iter.   Inner-Iter.     Column Row Layer    Maximum-Head-Change  Column Row Layer    Maximum-Flux-Residual          L2-NORM 
          0                 1           2             5    7     1       0.4185977581E-01       5    7    1         0.2219032224E+01      0.5792597947E+01
          0                 2           2             5    6     1      -0.4003500659E-02       5    7    1        -0.2219026607E+00      0.5661039963E+00
          0                 3           2             5    7     1       0.2782649948E-03       5    7    1         0.1561640581E-01      0.3995184343E-01
          0                 4           1             5    8     1       0.2030929547E-04       5    8    1         0.1136416243E-02      0.1900964495E-02

    ------------------------------------------------
       NWT REQUIRED            4 OUTER ITERATIONS 
       AND A TOTAL OF          7 INNER ITERATIONS.
    ------------------------------------------------

 NO OUTPUT CONTROL FOR STRESS PERIOD   34   TIME STEP    3
 
 SOLVING FOR HEAD 
                                                   Max.-Head-Change                         Max.-Flux-Residual
  Residual-Control   Outer-Iter.   Inner-Iter.     Column Row Layer    Maximum-Head-Change  Column Row Layer    Maximum-Flux-Residual          L2-NORM 
          0                 1           2             5    8     1       0.2211956073E+00       5    8    1         0.1216608005E+02      0.1323995765E+02
          0                 2           2             4    7     1      -0.3880694136E-01       5    7    1        -0.2088177195E+01      0.4778386079E+01
          0                 3           2             4    7     1       0.3653540273E-01       5    7    1         0.2016170506E+01      0.4857925484E+01
          0                 4           2             5    8     1       0.4030292850E-02       5    8    1         0.2378800578E+00      0.3027596430E+00
          0                 5           1             5    8     1       0.5186023346E-03       5    8    1         0.3024063687E-01      0.3038298828E-01
          0                 6           1             5    8     1       0.6672743564E-04       5    8    1         0.3894281039E-02      0.3895205236E-02

    ------------------------------------------------
       NWT REQUIRED            6 OUTER ITERATIONS 
       AND A TOTAL OF         10 INNER ITERATIONS.
    ------------------------------------------------

 NO OUTPUT CONTROL FOR STRESS PERIOD   34   TIME STEP    4
 
 SOLVING FOR HEAD 
                                                   Max.-Head-Change                         Max.-Flux-Residual
  Residual-Control   Outer-Iter.   Inner-Iter.     Column Row Layer    Maximum-Head-Change  Column Row Layer    Maximum-Flux-Residual          L2-NORM 
          0                 1           2             5    7     1       0.4341241743E-01       5    7    1         0.2320125015E+01      0.5390453212E+01
          0                 2           2             5    7     1      -0.4156832628E-02       5    7    1        -0.2320142421E+00      0.5509133826E+00
          0                 3           2             5    7     1       0.2881528040E-03       5    7    1         0.1629069954E-01      0.3859046342E-01
          0                 4           1             5    8     1       0.1213102113E-04       5    8    1         0.6880028714E-03      0.1683282968E-02

    ------------------------------------------------
       NWT REQUIRED            4 OUTER ITERATIONS 
       AND A TOTAL OF          7 INNER ITERATIONS.
    ------------------------------------------------

 NO OUTPUT CONTROL FOR STRESS PERIOD   34   TIME STEP    5
 
 SOLVING FOR HEAD 
                                                   Max.-Head-Change                         Max.-Flux-Residual
  Residual-Control   Outer-Iter.   Inner-Iter.     Column Row Layer    Maximum-Head-Change  Column Row Layer    Maximum-Flux-Residual          L2-NORM 
          0                 1           2             5    8     1       0.2060771122E+00       5    8    1         0.1132171264E+02      0.1241714325E+02
          0                 2           2             4    7     1      -0.3877735733E-01       5    7    1        -0.2095990538E+01      0.4785278823E+01
          0                 3           2             4    7     1       0.3653330720E-01       5    7    1         0.2016717450E+01      0.4855063671E+01
          0                 4           2             5    8     1       0.4014943220E-02       5    8    1         0.2369924946E+00      0.3020593263E+00
          0                 5           1             5    8     1       0.5166154711E-03       5    8    1         0.3012491583E-01      0.3026798115E-01
          0                 6           1             5    8     1       0.6647028023E-04       5    8    1         0.3879354112E-02      0.3880288761E-02

    ------------------------------------------------
       NWT REQUIRED            6 OUTER ITERATIONS 
       AND A TOTAL OF         10 INNER ITERATIONS.
    ------------------------------------------------

 NO OUTPUT CONTROL FOR STRESS PERIOD   34   TIME STEP    6
 
 SOLVING FOR HEAD 
                                                   Max.-Head-Change                         Max.-Flux-Residual
  Residual-Control   Outer-Iter.   Inner-Iter.     Column Row Layer    Maximum-Head-Change  Column Row Layer    Maximum-Flux-Residual          L2-NORM 
          0                 1           2             5    8     1       0.5616561938E-01       5    8    1         0.3031101190E+01      0.5959646921E+01
          0                 2           2             5    8     1       0.2481059615E-01       5    8    1         0.1376468997E+01      0.1474655908E+01
          0                 3           2             5    8     1       0.1096033045E-01       5    8    1         0.6043751578E+00      0.6055414780E+00
          0                 4           1             5    8     1       0.4841836531E-02       5    8    1         0.2672243476E+00      0.2672271611E+00
          0                 5           1             5    8     1       0.2138930212E-02       5    8    1         0.1180396642E+00      0.1180402198E+00
          0                 6           1             5    8     1       0.9448940510E-03       5    8    1         0.5214561014E-01      0.5214580511E-01
          0                 7           1             5    8     1       0.4174165057E-03       5    8    1         0.2303583932E-01      0.2303592729E-01
          0                 8           1             5    8     1       0.1843979647E-03       5    8    1         0.1017631641E-01      0.1017635519E-01
          0                 9           1             5    8     1       0.8145966677E-04       5    8    1         0.4495490905E-02      0.4495508032E-02

    ------------------------------------------------
       NWT REQUIRED            9 OUTER ITERATIONS 
       AND A TOTAL OF         12 INNER ITERATIONS.
    ------------------------------------------------

 NO OUTPUT CONTROL FOR STRESS PERIOD   34   TIME STEP    7
 
 SOLVING FOR HEAD 
                                                   Max.-Head-Change                         Max.-Flux-Residual
  Residual-Control   Outer-Iter.   Inner-Iter.     Column Row Layer    Maximum-Head-Change  Column Row Layer    Maximum-Flux-Residual          L2-NORM 
          0                 1           2             5    8     1       0.1056384727E+00       5    8    1         0.5756377979E+01      0.7666575710E+01
          0                 2           2             4    7     1      -0.3876257329E-01       5    7    1        -0.2110037504E+01      0.4892367655E+01
          0                 3           2             4    7     1       0.3653177454E-01       5    7    1         0.2017701528E+01      0.4838742193E+01
          0                 4           2             5    8     1       0.3925428517E-02       5    8    1         0.2313341919E+00      0.2976462555E+00
          0                 5           1             5    8     1       0.5061405213E-03       5    8    1         0.2946634833E-01      0.2961246047E-01
          0                 6           1             5    8     1       0.6525718352E-04       5    8    1         0.3802350251E-02      0.3803259396E-02

    ------------------------------------------------
       NWT REQUIRED            6 OUTER ITERATIONS 
       AND A TOTAL OF         10 INNER ITERATIONS.
    ------------------------------------------------

 NO OUTPUT CONTROL FOR STRESS PERIOD   34   TIME STEP    8
 
 SOLVING FOR HEAD 
                                                   Max.-Head-Change                         Max.-Flux-Residual
  Residual-Control   Outer-Iter.   Inner-Iter.     Column Row Layer    Maximum-Head-Change  Column Row Layer    Maximum-Flux-Residual          L2-NORM 
          0                 1           2             5    8     1       0.1231795245E+00       5    8    1         0.6719084646E+01      0.8390615145E+01
          0                 2           2             5    8     1       0.5445467433E-01       5    8    1         0.3011088337E+01      0.3055461418E+01
          0                 3           2             5    8     1       0.1840189047E-01       5    8    1         0.1014439393E+01      0.1015134900E+01
          0                 4           1             5    8     1       0.1462616614E-02       5    8    1         0.8067367951E-01      0.8068216346E-01
          0                 5           1             5    8     1       0.1162536470E-03       5    8    1         0.6410134237E-02      0.6410826830E-02
          0                 6           1             5    8     1       0.9240241321E-05       5    8    1         0.5096137472E-03      0.5096374160E-03

    ------------------------------------------------
       NWT REQUIRED            6 OUTER ITERATIONS 
       AND A TOTAL OF          9 INNER ITERATIONS.
    ------------------------------------------------

 NO OUTPUT CONTROL FOR STRESS PERIOD   34   TIME STEP    9
 
 SOLVING FOR HEAD 
                                                   Max.-Head-Change                         Max.-Flux-Residual
  Residual-Control   Outer-Iter.   Inner-Iter.     Column Row Layer    Maximum-Head-Change  Column Row Layer    Maximum-Flux-Residual          L2-NORM 
          0                 1           2             5    7     1       0.4559746837E-01       5    7    1         0.2471315072E+01      0.5109358878E+01
          0                 2           2             5    7     1      -0.3892327636E-01       5    7    1        -0.2117131538E+01      0.5021686550E+01
          0                 3           2             5    8     1       0.3728399019E-01       5    8    1         0.2052230569E+01      0.4968382841E+01
          0                 4           2             5    8     1      -0.2538948442E-02       5    8    1        -0.1455149698E+00      0.2365215076E+00
          0                 5           1             5    8     1       0.1010267462E-03       5    8    1         0.6025160635E-02      0.6651098935E-02
          0                 6           1             5    8     1      -0.1245703996E-05       5    8    1        -0.7726235845E-04      0.1002794708E-03

    ------------------------------------------------
       NWT REQUIRED            6 OUTER ITERATIONS 
       AND A TOTAL OF         10 INNER ITERATIONS.
    ------------------------------------------------

 NO OUTPUT CONTROL FOR STRESS PERIOD   34   TIME STEP   10
 
 SOLVING FOR HEAD 
                                                   Max.-Head-Change                         Max.-Flux-Residual
  Residual-Control   Outer-Iter.   Inner-Iter.     Column Row Layer    Maximum-Head-Change  Column Row Layer    Maximum-Flux-Residual          L2-NORM 
          0                 1           2             5    7     1       0.4378357706E-01       5    7    1         0.2369703586E+01      0.4951577257E+01
          0                 2           2             5    7     1      -0.4258950424E-02       5    7    1        -0.2369705025E+00      0.5116875490E+00
          0                 3           2             5    7     1       0.2900187125E-03       5    7    1         0.1658794099E-01      0.3579539448E-01
          0                 4           1             5    7     1      -0.1154012218E-04       5    7    1        -0.6784477293E-03      0.1462697652E-02

    ------------------------------------------------
       NWT REQUIRED            4 OUTER ITERATIONS 
       AND A TOTAL OF          7 INNER ITERATIONS.
    ------------------------------------------------

 NO OUTPUT CONTROL FOR STRESS PERIOD   34   TIME STEP   11
 
 SOLVING FOR HEAD 
                                                   Max.-Head-Change                         Max.-Flux-Residual
  Residual-Control   Outer-Iter.   Inner-Iter.     Column Row Layer    Maximum-Head-Change  Column Row Layer    Maximum-Flux-Residual          L2-NORM 
          0                 1           2             5    7     1       0.4210113151E-01       5    7    1         0.2275504006E+01      0.4794332834E+01
          0                 2           2             4    7     1      -0.3870795033E-01       5    7    1        -0.2097550651E+01      0.5003688121E+01
          0                 3           2             5    8     1       0.3731348848E-01       5    8    1         0.2053941023E+01      0.4967446387E+01
          0                 4           2             5    8     1      -0.2540957358E-02       5    8    1        -0.1456331367E+00      0.2365421105E+00
          0                 5           1             5    8     1       0.1011066817E-03       5    8    1         0.6029930977E-02      0.6656089931E-02
          0                 6           1             5    8     1      -0.1246689614E-05       5    8    1        -0.7732205063E-04      0.1003368241E-03

    ------------------------------------------------
       NWT REQUIRED            6 OUTER ITERATIONS 
       AND A TOTAL OF         10 INNER ITERATIONS.
    ------------------------------------------------

 NO OUTPUT CONTROL FOR STRESS PERIOD   34   TIME STEP   12
 
 SOLVING FOR HEAD 
                                                   Max.-Head-Change                         Max.-Flux-Residual
  Residual-Control   Outer-Iter.   Inner-Iter.     Column Row Layer    Maximum-Head-Change  Column Row Layer    Maximum-Flux-Residual          L2-NORM 
          0                 1           2             4    8     1       0.9458090782E-01       4    8    1         0.5122040162E+01      0.6574825965E+01
          0                 2           2             4    8     1       0.4255478120E-01       4    8    1         0.2315761156E+01      0.2355697180E+01
          0                 3           2             4    8     1       0.1914668618E-01       4    8    1         0.1040830943E+01      0.1041279914E+01
          0                 4           2             4    8     1       0.8614672735E-02       4    8    1         0.4683659807E+00      0.4683678627E+00
          0                 5           2             4    8     1       0.3876001654E-02       4    8    1         0.2107303411E+00      0.2107308085E+00
          0                 6           2             4    8     1       0.1743930303E-02       4    8    1         0.9481395926E-01      0.9481415729E-01
          0                 7           2             4    8     1       0.7846469567E-03       4    8    1         0.4265967217E-01      0.4265976144E-01
          0                 8           2             4    8     1       0.3530363832E-03       4    8    1         0.1919387591E-01      0.1919391607E-01
          0                 9           2             4    8     1       0.1588417399E-03       4    8    1         0.8635905140E-02      0.8635923203E-02
          0                10           1             4    8     1       0.7146770020E-04       4    8    1         0.3885554822E-02      0.3885562980E-02

    ------------------------------------------------
       NWT REQUIRED           10 OUTER ITERATIONS 
       AND A TOTAL OF         19 INNER ITERATIONS.
    ------------------------------------------------

 NO OUTPUT CONTROL FOR STRESS PERIOD   34   TIME STEP   13
 
 SOLVING FOR HEAD 
                                                   Max.-Head-Change                         Max.-Flux-Residual
  Residual-Control   Outer-Iter.   Inner-Iter.     Column Row Layer    Maximum-Head-Change  Column Row Layer    Maximum-Flux-Residual          L2-NORM 
          0                 1           2             4    8     1       0.8806354971E-01       4    8    1         0.4760805708E+01      0.6925973072E+01
          0                 2           2             4    7     1      -0.3832955953E-01       4    7    1        -0.2085898054E+01      0.4369683537E+01
          0                 3           2             5    8     1       0.3719904277E-01       5    8    1         0.2055988831E+01      0.4752462846E+01
          0                 4           2             5    7     1       0.4116161988E-02       5    7    1         0.2452058579E+00      0.3973719772E+00
          0                 5           2             4    8     1       0.5298956216E-03       5    7    1         0.3078894547E-01      0.4370144895E-01
          0                 6           1             4    8     1       0.6966165449E-04       4    8    1         0.4000462381E-02      0.5642021899E-02

    ------------------------------------------------
       NWT REQUIRED            6 OUTER ITERATIONS 
       AND A TOTAL OF         11 INNER ITERATIONS.
    ------------------------------------------------

 NO OUTPUT CONTROL FOR STRESS PERIOD   34   TIME STEP   14
 
 SOLVING FOR HEAD 
                                                   Max.-Head-Change                         Max.-Flux-Residual
  Residual-Control   Outer-Iter.   Inner-Iter.     Column Row Layer    Maximum-Head-Change  Column Row Layer    Maximum-Flux-Residual          L2-NORM 
          0                 1           2             4    8     1       0.1933331340E+00       4    8    1         0.1048050781E+02      0.1119930724E+02
          0                 2           2             4    8     1       0.3612534310E-01       4    8    1         0.1967131597E+01      0.2008163098E+01
          0                 3           2             4    8     1       0.2965418826E-02       4    8    1         0.1610024337E+00      0.1636026874E+00
          0                 4           2             4    8     1       0.2434246055E-03       4    8    1         0.1324168224E-01      0.1331629502E-01
          0                 5           1             4    8     1       0.1998217211E-04       4    8    1         0.1086070644E-02      0.1089209251E-02

    ------------------------------------------------
       NWT REQUIRED            5 OUTER ITERATIONS 
       AND A TOTAL OF          9 INNER ITERATIONS.
    ------------------------------------------------

 NO OUTPUT CONTROL FOR STRESS PERIOD   34   TIME STEP   15
 
 SOLVING FOR HEAD 
                                                   Max.-Head-Change                         Max.-Flux-Residual
  Residual-Control   Outer-Iter.   Inner-Iter.     Column Row Layer    Maximum-Head-Change  Column Row Layer    Maximum-Flux-Residual          L2-NORM 
          0                 1           2             5    7     1       0.2155892072E+00       5    7    1         0.1185045713E+02      0.1240017129E+02
          0                 2           2             4    7     1      -0.3881940144E-01       4    7    1        -0.2106760160E+01      0.4534354242E+01
          0                 3           2             4    7     1       0.3644600546E-01       4    7    1         0.2017471559E+01      0.4766334009E+01
          0                 4           2             5    7     1       0.4081755542E-02       5    7    1         0.2422669725E+00      0.3121427288E+00
          0                 5           2             5    7     1       0.5249773495E-03       5    7    1         0.3060201544E-01      0.3344052864E-01
          0                 6           1             5    7     1       0.6751640636E-04       5    7    1         0.3940368122E-02      0.4307598585E-02

    ------------------------------------------------
       NWT REQUIRED            6 OUTER ITERATIONS 
       AND A TOTAL OF         11 INNER ITERATIONS.
    ------------------------------------------------

 NO OUTPUT CONTROL FOR STRESS PERIOD   34   TIME STEP   16
 
 SOLVING FOR HEAD 
                                                   Max.-Head-Change                         Max.-Flux-Residual
  Residual-Control   Outer-Iter.   Inner-Iter.     Column Row Layer    Maximum-Head-Change  Column Row Layer    Maximum-Flux-Residual          L2-NORM 
          0                 1           2             4    7     1       0.4680377098E-01       4    7    1         0.2502235585E+01      0.3933886567E+01
          0                 2           2             4    7     1      -0.4455501966E-02       4    7    1        -0.2502286458E+00      0.4104783759E+00
          0                 3           2             4    7     1       0.3110256737E-03       4    7    1         0.1758899873E-01      0.2879420194E-01
          0                 4           1             4    7     1      -0.1177852059E-04       4    7    1        -0.7078023159E-03      0.1353639886E-02

    ------------------------------------------------
       NWT REQUIRED            4 OUTER ITERATIONS 
       AND A TOTAL OF          7 INNER ITERATIONS.
    ------------------------------------------------

 NO OUTPUT CONTROL FOR STRESS PERIOD   34   TIME STEP   17
 
 SOLVING FOR HEAD 
                                                   Max.-Head-Change                         Max.-Flux-Residual
  Residual-Control   Outer-Iter.   Inner-Iter.     Column Row Layer    Maximum-Head-Change  Column Row Layer    Maximum-Flux-Residual          L2-NORM 
          0                 1           2             4    7     1       0.4561096384E-01       4    7    1         0.2437505654E+01      0.3842412518E+01
          0                 2           2             4    7     1      -0.3918197735E-01       4    7    1        -0.2113755382E+01      0.4791490468E+01
          0                 3           2             4    7     1       0.3646584786E-01       4    7    1         0.2017961492E+01      0.4777846322E+01
          0                 4           2             5    7     1       0.1951413768E-02       5    7    1         0.1175425186E+00      0.2219531264E+00
          0                 5           2             5    7     1       0.2484221344E-03       5    7    1         0.1460847180E-01      0.2157309018E-01
          0                 6           1             5    7     1       0.3158173020E-04       5    7    1         0.1862833279E-02      0.2814852629E-02

    ------------------------------------------------
       NWT REQUIRED            6 OUTER ITERATIONS 
       AND A TOTAL OF         11 INNER ITERATIONS.
    ------------------------------------------------

 NO OUTPUT CONTROL FOR STRESS PERIOD   34   TIME STEP   18
 
 SOLVING FOR HEAD 
                                                   Max.-Head-Change                         Max.-Flux-Residual
  Residual-Control   Outer-Iter.   Inner-Iter.     Column Row Layer    Maximum-Head-Change  Column Row Layer    Maximum-Flux-Residual          L2-NORM 
          0                 1           2             4    7     1       0.4446752854E-01       4    7    1         0.2375496500E+01      0.3768915905E+01
          0                 2           2             4    7     1      -0.4228586831E-02       4    7    1        -0.2375542040E+00      0.3942368178E+00
          0                 3           2             4    7     1       0.2956770511E-03       4    7    1         0.1670218874E-01      0.2785501791E-01
          0                 4           1             4    7     1      -0.1114822104E-04       4    7    1        -0.6712573077E-03      0.1365448471E-02

    ------------------------------------------------
       NWT REQUIRED            4 OUTER ITERATIONS 
       AND A TOTAL OF          7 INNER ITERATIONS.
    ------------------------------------------------

 NO OUTPUT CONTROL FOR STRESS PERIOD   34   TIME STEP   19
 
 SOLVING FOR HEAD 
                                                   Max.-Head-Change                         Max.-Flux-Residual
  Residual-Control   Outer-Iter.   Inner-Iter.     Column Row Layer    Maximum-Head-Change  Column Row Layer    Maximum-Flux-Residual          L2-NORM 
          0                 1           2             4    7     1       0.4337220998E-01       4    7    1         0.2316106173E+01      0.3684728438E+01
          0                 2           2             4    7     1      -0.3896452457E-01       4    7    1        -0.2101614934E+01      0.4751382753E+01
          0                 3           2             4    7     1       0.3645131584E-01       4    7    1         0.2017111707E+01      0.4743412661E+01
          0                 4           2             5    7     1       0.1951123731E-02       5    7    1         0.1162380395E+00      0.2117848490E+00
          0                 5           2             5    7     1       0.2520501227E-03       5    7    1         0.1463272881E-01      0.1977935962E-01
          0                 6           1             5    7     1       0.3258324509E-04       5    7    1         0.1893997965E-02      0.2575007168E-02

    ------------------------------------------------
       NWT REQUIRED            6 OUTER ITERATIONS 
       AND A TOTAL OF         11 INNER ITERATIONS.
    ------------------------------------------------

 NO OUTPUT CONTROL FOR STRESS PERIOD   34   TIME STEP   20
 
 SOLVING FOR HEAD 
                                                   Max.-Head-Change                         Max.-Flux-Residual
  Residual-Control   Outer-Iter.   Inner-Iter.     Column Row Layer    Maximum-Head-Change  Column Row Layer    Maximum-Flux-Residual          L2-NORM 
          0                 1           2             4    7     1       0.4232107635E-01       4    7    1         0.2259154626E+01      0.3617610585E+01
          0                 2           2             4    7     1      -0.4020875481E-02       4    7    1        -0.2259195496E+00      0.3796758791E+00
          0                 3           2             4    7     1       0.2814492872E-03       4    7    1         0.1588696126E-01      0.2685443365E-01
          0                 4           1             4    7     1      -0.1058851163E-04       4    7    1        -0.6380399095E-03      0.1328156356E-02

    ------------------------------------------------
       NWT REQUIRED            4 OUTER ITERATIONS 
       AND A TOTAL OF          7 INNER ITERATIONS.
    ------------------------------------------------

 NO OUTPUT CONTROL FOR STRESS PERIOD   34   TIME STEP   21
 
 SOLVING FOR HEAD 
                                                   Max.-Head-Change                         Max.-Flux-Residual
  Residual-Control   Outer-Iter.   Inner-Iter.     Column Row Layer    Maximum-Head-Change  Column Row Layer    Maximum-Flux-Residual          L2-NORM 
          0                 1           2             4    7     1       0.4131191008E-01       4    7    1         0.2204517698E+01      0.3539460579E+01
          0                 2           2             4    7     1      -0.3876521124E-01       4    7    1        -0.2090455651E+01      0.4740975794E+01
          0                 3           2             4    7     1       0.3643881695E-01       4    7    1         0.2016330601E+01      0.4743936025E+01
          0                 4           2             5    7     1       0.1919133517E-02       5    7    1         0.1143492631E+00      0.2096757010E+00
          0                 5           2             5    7     1       0.2479906119E-03       5    7    1         0.1439331852E-01      0.1941314760E-01
          0                 6           1             5    7     1       0.3206770875E-04       5    7    1         0.1863618721E-02      0.2527816171E-02

    ------------------------------------------------
       NWT REQUIRED            6 OUTER ITERATIONS 
       AND A TOTAL OF         11 INNER ITERATIONS.
    ------------------------------------------------

 NO OUTPUT CONTROL FOR STRESS PERIOD   34   TIME STEP   22
 
 SOLVING FOR HEAD 
                                                   Max.-Head-Change                         Max.-Flux-Residual
  Residual-Control   Outer-Iter.   Inner-Iter.     Column Row Layer    Maximum-Head-Change  Column Row Layer    Maximum-Flux-Residual          L2-NORM 
          0                 1           2             4    7     1       0.4034194217E-01       4    7    1         0.2152039728E+01      0.3478259622E+01
          0                 2           2             4    7     1      -0.3829701388E-02       4    7    1        -0.2152076525E+00      0.3663602593E+00
          0                 3           2             4    7     1       0.2683268437E-03       4    7    1         0.1513612856E-01      0.2593727469E-01
          0                 4           1             4    7     1      -0.1007444514E-04       4    7    1        -0.6074882078E-03      0.1292842826E-02

    ------------------------------------------------
       NWT REQUIRED            4 OUTER ITERATIONS 
       AND A TOTAL OF          7 INNER ITERATIONS.
    ------------------------------------------------

 NO OUTPUT CONTROL FOR STRESS PERIOD   34   TIME STEP   23
 
 SOLVING FOR HEAD 
                                                   Max.-Head-Change                         Max.-Flux-Residual
  Residual-Control   Outer-Iter.   Inner-Iter.     Column Row Layer    Maximum-Head-Change  Column Row Layer    Maximum-Flux-Residual          L2-NORM 
          0                 1           2             4    7     1       0.3940920981E-01       4    7    1         0.2101611246E+01      0.3405319738E+01
          0                 2           2             4    7     1      -0.3858146430E-01       4    7    1        -0.2080164625E+01      0.4731658208E+01
          0                 3           2             4    7     1       0.3642760712E-01       4    7    1         0.2015610270E+01      0.4745009526E+01
          0                 4           2             5    7     1       0.1876242317E-02       5    7    1         0.1118293235E+00      0.2071772453E+00
          0                 5           2             5    7     1       0.2425129085E-03       5    7    1         0.1407182120E-01      0.1896865047E-01
          0                 6           1             5    7     1       0.3136760572E-04       5    7    1         0.1822561377E-02      0.2470136557E-02

    ------------------------------------------------
       NWT REQUIRED            6 OUTER ITERATIONS 
       AND A TOTAL OF         11 INNER ITERATIONS.
    ------------------------------------------------

 NO OUTPUT CONTROL FOR STRESS PERIOD   34   TIME STEP   24
 
 SOLVING FOR HEAD 
                                                   Max.-Head-Change                         Max.-Flux-Residual
  Residual-Control   Outer-Iter.   Inner-Iter.     Column Row Layer    Maximum-Head-Change  Column Row Layer    Maximum-Flux-Residual          L2-NORM 
          0                 1           2             4    7     1       0.3851117454E-01       4    7    1         0.2053090315E+01      0.3349287245E+01
          0                 2           2             4    7     1      -0.3653156308E-02       4    7    1        -0.2053123551E+00      0.3541269815E+00
          0                 3           2             4    7     1       0.2561848489E-03       4    7    1         0.1444230821E-01      0.2509240941E-01
          0                 4           1             5    7     1       0.9785452007E-05       4    7    1        -0.5792925533E-03      0.1258939915E-02

    ------------------------------------------------
       NWT REQUIRED            4 OUTER ITERATIONS 
       AND A TOTAL OF          7 INNER ITERATIONS.
    ------------------------------------------------

 NO OUTPUT CONTROL FOR STRESS PERIOD   34   TIME STEP   25
 
 SOLVING FOR HEAD 
                                                   Max.-Head-Change                         Max.-Flux-Residual
  Residual-Control   Outer-Iter.   Inner-Iter.     Column Row Layer    Maximum-Head-Change  Column Row Layer    Maximum-Flux-Residual          L2-NORM 
          0                 1           2             4    7     1       0.3764634394E-01       4    7    1         0.2006393292E+01      0.3280883496E+01
          0                 2           2             4    7     1      -0.3841149719E-01       4    7    1        -0.2070642496E+01      0.4723285633E+01
          0                 3           2             4    7     1       0.3641750790E-01       4    7    1         0.2014943758E+01      0.4746504267E+01
          0                 4           2             5    7     1       0.1825197619E-02       5    7    1         0.1088381229E+00      0.2043760374E+00
          0                 5           2             5    7     1       0.2359720814E-03       5    7    1         0.1368889260E-01      0.1846377221E-01
          0                 6           1             5    7     1       0.3052884355E-04       5    7    1         0.1773495107E-02      0.2404325482E-02

    ------------------------------------------------
       NWT REQUIRED            6 OUTER ITERATIONS 
       AND A TOTAL OF         11 INNER ITERATIONS.
    ------------------------------------------------

 NO OUTPUT CONTROL FOR STRESS PERIOD   34   TIME STEP   26
 
 SOLVING FOR HEAD 
                                                   Max.-Head-Change                         Max.-Flux-Residual
  Residual-Control   Outer-Iter.   Inner-Iter.     Column Row Layer    Maximum-Head-Change  Column Row Layer    Maximum-Flux-Residual          L2-NORM 
          0                 1           2             4    7     1       0.3681275672E-01       4    7    1         0.1961410631E+01      0.3229439170E+01
          0                 2           2             4    7     1      -0.3489630820E-02       4    7    1        -0.1961440742E+00      0.3428463418E+00
          0                 3           2             4    7     1       0.2449177430E-03       4    7    1         0.1379926807E-01      0.2431144267E-01
          0                 4           1             5    7     1       0.9618492881E-05       4    7    1        -0.5531918471E-03      0.1226728476E-02

    ------------------------------------------------
       NWT REQUIRED            4 OUTER ITERATIONS 
       AND A TOTAL OF          7 INNER ITERATIONS.
    ------------------------------------------------

 NO OUTPUT CONTROL FOR STRESS PERIOD   34   TIME STEP   27
 
 SOLVING FOR HEAD 
                                                   Max.-Head-Change                         Max.-Flux-Residual
  Residual-Control   Outer-Iter.   Inner-Iter.     Column Row Layer    Maximum-Head-Change  Column Row Layer    Maximum-Flux-Residual          L2-NORM 
          0                 1           2             4    7     1       0.3600877766E-01       4    7    1         0.1918051053E+01      0.3165025669E+01
          0                 2           2             4    7     1      -0.3825384807E-01       4    7    1        -0.2061807979E+01      0.4715738029E+01
          0                 3           2             4    7     1       0.3640837315E-01       4    7    1         0.2014325377E+01      0.4748345347E+01
          0                 4           2             5    7     1       0.1768266857E-02       5    7    1         0.1055075695E+00      0.2013818183E+00
          0                 5           2             5    7     1       0.2286613209E-03       5    7    1         0.1326158167E-01      0.1791421831E-01
          0                 6           1             5    7     1       0.2958934984E-04       5    7    1         0.1718624225E-02      0.2332430121E-02

    ------------------------------------------------
       NWT REQUIRED            6 OUTER ITERATIONS 
       AND A TOTAL OF         11 INNER ITERATIONS.
    ------------------------------------------------

 NO OUTPUT CONTROL FOR STRESS PERIOD   34   TIME STEP   28
 
 SOLVING FOR HEAD 
                                                   Max.-Head-Change                         Max.-Flux-Residual
  Residual-Control   Outer-Iter.   Inner-Iter.     Column Row Layer    Maximum-Head-Change  Column Row Layer    Maximum-Flux-Residual          L2-NORM 
          0                 1           2             4    7     1       0.3523258022E-01       4    7    1         0.1876213094E+01      0.3117664948E+01
          0                 2           2             4    7     1      -0.3337709484E-02       4    7    1        -0.1876240451E+00      0.3324075148E+00
          0                 3           2             4    7     1       0.2344325265E-03       4    7    1         0.1320152701E-01      0.2358699019E-01
          0                 4           1             5    7     1       0.9434909749E-05       5    7    1         0.5304047722E-03      0.1195854787E-02

    ------------------------------------------------
       NWT REQUIRED            4 OUTER ITERATIONS 
       AND A TOTAL OF          7 INNER ITERATIONS.
    ------------------------------------------------

 NO OUTPUT CONTROL FOR STRESS PERIOD   34   TIME STEP   29
 
 SOLVING FOR HEAD 
                                                   Max.-Head-Change                         Max.-Flux-Residual
  Residual-Control   Outer-Iter.   Inner-Iter.     Column Row Layer    Maximum-Head-Change  Column Row Layer    Maximum-Flux-Residual          L2-NORM 
          0                 1           2             4    7     1       0.3448329932E-01       4    7    1         0.1835848185E+01      0.3056773948E+01
          0                 2           2             4    7     1      -0.3810719442E-01       4    7    1        -0.2053587434E+01      0.4708911232E+01
          0                 3           2             4    7     1       0.3640007653E-01       4    7    1         0.2013749971E+01      0.4750462082E+01
          0                 4           2             5    7     1       0.1707191529E-02       5    7    1         0.1019388595E+00      0.1982704846E+00
          0                 5           2             5    7     1       0.2208061461E-03       5    7    1         0.1280298755E-01      0.1733185816E-01
          0                 6           1             5    7     1       0.2857834101E-04       5    7    1         0.1659644895E-02      0.2256021596E-02

    ------------------------------------------------
       NWT REQUIRED            6 OUTER ITERATIONS 
       AND A TOTAL OF         11 INNER ITERATIONS.
    ------------------------------------------------

 NO OUTPUT CONTROL FOR STRESS PERIOD   34   TIME STEP   30



 STREAM LISTING     PERIOD     34   STEP       30

 LAYER ROW COL. STREAM  RCH.  FLOW INTO     FLOW TO   FLOW OUT OF   OVRLND.     DIRECT     STREAM       STREAM     STREAM     STREAM   STREAMBED  STREAMBED
                SEG.NO.  NO.  STRM. RCH.    AQUIFER    STRM. RCH.    RUNOFF     PRECIP       ET          HEAD       DEPTH      WIDTH   CONDCTNC.   GRADIENT

   1    1    1     1     1    3.5249E+01  2.8720E-01   3.4962E+01  0.000E+00  0.000E+00  0.000E+00  1.09434E+03  1.294E+00  1.486E+01  6.688E-02  1.431E+00
   1    2    2     1     2    3.4962E+01  4.4466E-01   3.4517E+01  0.000E+00  0.000E+00  0.000E+00  1.08935E+03  1.291E+00  1.480E+01  1.036E-01  1.430E+00
   1    3    3     1     3    3.4517E+01  3.7911E-01   3.4138E+01  0.000E+00  0.000E+00  0.000E+00  1.08371E+03  1.288E+00  1.474E+01  8.841E-02  1.429E+00
   1    3    4     1     4    3.4138E+01  3.4901E-01   3.3789E+01  0.000E+00  0.000E+00  0.000E+00  1.07869E+03  1.285E+00  1.468E+01  8.145E-02  1.428E+00
   1    4    5     2     1    3.1789E+01  3.4244E-01   3.1446E+01  0.000E+00  0.000E+00  0.000E+00  1.07332E+03  1.390E+00  1.200E+01  7.800E-02  1.463E+00
   1    5    6     2     2    3.1446E+01  2.6294E-01   3.1184E+01  0.000E+00  0.000E+00  0.000E+00  1.06789E+03  1.382E+00  1.200E+01  6.000E-02  1.461E+00
   1    6    6     2     3    3.1184E+01  2.6252E-01   3.0921E+01  0.000E+00  0.000E+00  0.000E+00  1.06317E+03  1.375E+00  1.200E+01  6.000E-02  1.458E+00
   1    7    6     2     4    3.0921E+01  2.6210E-01   3.0659E+01  0.000E+00  0.000E+00  0.000E+00  1.05844E+03  1.368E+00  1.200E+01  6.000E-02  1.456E+00
   1    8    6     2     5    3.0659E+01  2.6168E-01   3.0397E+01  0.000E+00  0.000E+00  0.000E+00  1.05372E+03  1.361E+00  1.200E+01  6.000E-02  1.454E+00
   1    3    5     3     1    2.0000E+00  2.8252E-01   1.7175E+00  0.000E+00  0.000E+00  0.000E+00  1.07555E+03  1.909E+00  9.636E+00  7.227E-02  1.955E+00
   1    3    6     3     2    1.7175E+00  2.4905E-01   1.4684E+00  0.000E+00  0.000E+00  0.000E+00  1.07264E+03  1.727E+00  8.909E+00  6.682E-02  1.864E+00
   1    3    7     3     3    1.4684E+00  1.9718E-01   1.2712E+00  0.000E+00  0.000E+00  0.000E+00  1.06987E+03  1.555E+00  8.218E+00  5.547E-02  1.777E+00
   1    4    8     3     4    1.2712E+00  2.2567E-01   1.0456E+00  0.000E+00  0.000E+00  0.000E+00  1.06682E+03  1.364E+00  7.455E+00  6.709E-02  1.682E+00
   1    5    8     3     5    1.0456E+00  1.5790E-01   8.8768E-01  0.000E+00  0.000E+00  0.000E+00  1.06362E+03  1.164E+00  6.655E+00  4.991E-02  1.582E+00
   1    6    8     3     6    8.8768E-01  5.5980E-02   8.3170E-01  0.000E+00  0.000E+00  0.000E+00  1.06158E+03  1.036E+00  6.145E+00  1.844E-02  1.518E+00
   1    5   10     4     1    1.0000E+01  9.0919E-02   9.9091E+00  0.000E+00  0.000E+00  0.000E+00  1.07836E+03  6.368E-01  1.000E+01  2.500E-02  1.212E+00
   1    5    9     4     2    9.9091E+00  1.8158E-01   9.7275E+00  0.000E+00  0.000E+00  0.000E+00  1.07154E+03  6.315E-01  1.000E+01  5.000E-02  1.211E+00
   1    6    8     4     3    9.7275E+00  1.2689E-01   9.6006E+00  0.000E+00  0.000E+00  0.000E+00  1.06381E+03  6.256E-01  1.000E+01  3.500E-02  1.209E+00
   1    6    8     5     1    1.0432E+01  2.2686E-01   1.0205E+01  0.000E+00  0.000E+00  0.000E+00  1.05868E+03  6.790E-01  1.542E+01  6.166E-02  1.226E+00
   1    7    7     5     2    1.0205E+01  2.7894E-01   9.9265E+00  0.000E+00  0.000E+00  0.000E+00  1.05417E+03  6.732E-01  1.519E+01  7.594E-02  1.224E+00
   1    8    7     5     3    9.9265E+00  1.9221E-01   9.7343E+00  0.000E+00  0.000E+00  0.000E+00  1.04992E+03  6.676E-01  1.497E+01  5.241E-02  1.223E+00
   1    8    6     5     4    9.7343E+00  1.3577E-01   9.5985E+00  0.000E+00  0.000E+00  0.000E+00  1.04691E+03  6.637E-01  1.482E+01  3.706E-02  1.221E+00
   1    9    6     6     1    1.7556E+01  2.3902E-01   1.7317E+01  0.000E+00  0.000E+00  0.000E+00  1.04371E+03  9.837E-01  1.200E+01  6.000E-02  1.328E+00
   1   10    7     6     2    1.7317E+01  2.3853E-01   1.7078E+01  0.000E+00  0.000E+00  0.000E+00  1.03916E+03  9.756E-01  1.200E+01  6.000E-02  1.325E+00
   1   11    7     6     3    1.7078E+01  2.3805E-01   1.6840E+01  0.000E+00  0.000E+00  0.000E+00  1.03460E+03  9.674E-01  1.200E+01  6.000E-02  1.322E+00
   1   12    7     6     4    1.6840E+01  2.3756E-01   1.6603E+01  0.000E+00  0.000E+00  0.000E+00  1.03005E+03  9.593E-01  1.200E+01  6.000E-02  1.320E+00
   1   13    7     6     5    1.6603E+01 -2.0845E-02   1.6623E+01  0.000E+00  0.000E+00  0.000E+00  1.02686E+03  9.555E-01  1.200E+01  2.400E-01 -2.895E-02
   1   14    9     7     1    1.5000E+02  1.3464E+00   1.4865E+02  0.000E+00  0.000E+00  0.000E+00  1.03987E+03  2.288E+00  5.529E+01  5.593E-01  8.024E-01
   1   13    8     7     2    1.4865E+02  1.8718E+00   1.4678E+02  0.000E+00  0.000E+00  0.000E+00  1.03478E+03  2.279E+00  5.526E+01  6.148E-01  1.015E+00
   1   13    7     7     3    1.4678E+02  1.5290E+00   1.4525E+02  0.000E+00  0.000E+00  0.000E+00  1.02969E+03  2.270E+00  5.522E+01  5.584E-01  9.126E-01
   1   13    6     8     1    1.6188E+02  9.2895E-01   1.6095E+02  0.000E+00  0.000E+00  0.000E+00  1.02477E+03  2.895E+00  4.198E+01  4.278E-01  7.238E-01
   1   13    5     8     2    1.6095E+02  1.8742E-01   1.6076E+02  0.000E+00  0.000E+00  0.000E+00  1.01852E+03  2.892E+00  4.193E+01  4.273E-01  1.462E-01
   1   13    4     8     3    1.6076E+02 -2.5342E+00   1.6329E+02  0.000E+00  0.000E+00  0.000E+00  1.01227E+03  2.900E+00  4.204E+01  4.284E+00 -1.972E-01
   1   13    3     8     4    1.6329E+02 -3.7743E+00   1.6707E+02  0.000E+00  0.000E+00  0.000E+00  1.00605E+03  2.921E+00  4.235E+01  4.315E+00 -2.915E-01
   1   13    2     8     5    1.6707E+02 -2.7586E+00   1.6983E+02  0.000E+00  0.000E+00  0.000E+00  9.99817E+02  2.942E+00  4.266E+01  4.347E+00 -2.115E-01
   1   13    1     8     6    1.6983E+02 -2.0719E+00   1.7190E+02  0.000E+00  0.000E+00  0.000E+00  9.94833E+02  2.958E+00  4.289E+01  2.622E+00 -2.634E-01
   1    8    6     9     1    2.2440E+01  0.0000E+00   2.2440E+01  0.000E+00  0.000E+00  0.000E+00  1.08243E+03  3.680E+00  4.000E+00  0.000E+00  2.227E+00
   1    8    5     9     2    2.2440E+01  0.0000E+00   2.2440E+01  0.000E+00  0.000E+00  0.000E+00  1.08193E+03  3.680E+00  4.000E+00  0.000E+00  2.227E+00





UNSATURATED ZONE PACKAGE VOLUMETRIC BUDGET FOR  TIME STEP    30 STRESS PERIOD   34
  ------------------------------------------------------------------------------



     CUMULATIVE VOLUMES      L**3       RATES FOR THIS TIME STEP      L**3/T
     ------------------                 ------------------------

           IN:                                      IN:
           ---                                      ---
        INFILTRATION =  1538534101.4440          INFILTRATION =          23.2879

          OUT:                                     OUT:
          ----                                     ----
              UZF ET =  1276057184.7844                UZF ET =          12.0675
        UZF RECHARGE =    11440610.6346          UZF RECHARGE =           0.4768

            IN - OUT =   251036306.0250              IN - OUT =          10.7437

          STORAGE:                                 STORAGE:
          --------                                 --------
      STORAGE CHANGE =   251037469.2147        STORAGE CHANGE =          10.7437

 PERCENT DISCREPANCY IS DIFFERENCE BETWEEN IN-OUT MINUS CHANGE IN STORAGE
 DIVIDED BY THE AVERAGE OF IN AND OUT TIMES 100

 PERCENT DISCREPANCY =          -0.00     PERCENT DISCREPANCY =          -0.00






1
  VOLUMETRIC BUDGET FOR AGRICULTURAL FIELDS AT  END OF TIME STEP   30, STRESS PERIOD  34
  ------------------------------------------------------------------------------

     CUMULATIVE VOLUMES      L**3       RATES FOR THIS TIME STEP      L**3/T
     ------------------                 ------------------------

           IN:                                      IN:
           ---                                      ---
               AG WELLS  =   541941056.0000                 AG WELLS  =           0.0000
      DIVERSION SEGMENTS =   922956288.0000        DIVERSION SEGMENTS =          22.4400
           GW IRRIGATION =           0.0000             GW IRRIGATION =           0.0000
           SW IRRIGATION =           0.0000             SW IRRIGATION =           0.0000
        SYSTEM LOSSES GW =           0.0000          SYSTEM LOSSES GW =           0.0000
        SYSTEM LOSSES SW =           0.0000          SYSTEM LOSSES SW =           0.0000

                TOTAL IN =  1464897280.0000                  TOTAL IN =          22.4400

          OUT:                                     OUT:
          ----                                     ----
               AG WELLS  =           0.0000                 AG WELLS  =           0.0000
      DIVERSION SEGMENTS =           0.0000        DIVERSION SEGMENTS =           0.0000
           GW IRRIGATION =   541941056.0000             GW IRRIGATION =           0.0000
           SW IRRIGATION =   922974784.0000             SW IRRIGATION =          22.4404
        SYSTEM LOSSES GW =           0.0000          SYSTEM LOSSES GW =           0.0000
        SYSTEM LOSSES SW =           0.0000          SYSTEM LOSSES SW =           0.0000

               TOTAL OUT =  1464915840.0000                 TOTAL OUT =          22.4404

                IN - OUT =      -18560.0000                  IN - OUT =      -4.4823E-04

     PERCENT DISCREPANCY =          -0.00         PERCENT DISCREPANCY =          -0.00



1
  VOLUMETRIC BUDGET FOR ENTIRE MODEL AT END OF TIME STEP   30, STRESS PERIOD  34
  ------------------------------------------------------------------------------

     CUMULATIVE VOLUMES      L**3       RATES FOR THIS TIME STEP      L**3/T
     ------------------                 ------------------------

           IN:                                      IN:
           ---                                      ---
             STORAGE     =   859041280.0000               STORAGE     =           6.6548
       CONSTANT HEAD     =           0.0000         CONSTANT HEAD     =           0.0000
     HEAD DEP BOUNDS     =    24839694.0000       HEAD DEP BOUNDS     =           0.2865
      STREAM LEAKAGE     =  1046177792.0000        STREAM LEAKAGE     =          12.0698
        UZF RECHARGE     =    11440611.0000          UZF RECHARGE     =           0.4768
               GW ET     =           0.0000                 GW ET     =           0.0000
     SURFACE LEAKAGE     =           0.0000       SURFACE LEAKAGE     =           0.0000
           AG WELLS      =           0.0000             AG WELLS      =           0.0000

                TOTAL IN =  1941499392.0000                  TOTAL IN =          19.4879

          OUT:                                     OUT:
          ----                                     ----
             STORAGE     =   442809952.0000               STORAGE     =           8.0379
       CONSTANT HEAD     =           0.0000         CONSTANT HEAD     =           0.0000
     HEAD DEP BOUNDS     =    25261588.0000       HEAD DEP BOUNDS     =           0.2897
      STREAM LEAKAGE     =   928826112.0000        STREAM LEAKAGE     =          11.1599
        UZF RECHARGE     =           0.0000          UZF RECHARGE     =           0.0000
               GW ET     =     2673563.7500                 GW ET     =           0.0000
     SURFACE LEAKAGE     =           0.0000       SURFACE LEAKAGE     =           0.0000
           AG WELLS      =   541941056.0000             AG WELLS      =           0.0000

               TOTAL OUT =  1941512192.0000                 TOTAL OUT =          19.4874

                IN - OUT =      -12800.0000                  IN - OUT =       4.8828E-04

     PERCENT DISCREPANCY =          -0.00         PERCENT DISCREPANCY =           0.00






         TIME SUMMARY AT END OF TIME STEP   30 IN STRESS PERIOD   34
                    SECONDS     MINUTES      HOURS       DAYS        YEARS
                    -----------------------------------------------------------
   TIME STEP LENGTH  87667.      1461.1      24.352      1.0147     2.77799E-03
 STRESS PERIOD TIME 2.63000E+06  43833.      730.56      30.440     8.33397E-02
         TOTAL TIME 8.68762E+07 1.44794E+06  24132.      1005.5      2.7529    
1
1
                            STRESS PERIOD NO.   35, LENGTH =   2630000.    
                            -----------------------------------------------

                              NUMBER OF TIME STEPS =    30

                               MULTIPLIER FOR DELT =     1.000

                            INITIAL TIME STEP SIZE =   87666.66    

 REUSING NON-PARAMETER GHB CELLS FROM LAST STRESS PERIOD

      2 GHB CELLS

 REUSING STREAM SEGMENT DATA FROM LAST STRESS PERIOD



            AREAL INFILTRATION RATE
 READING ON UNIT   19 WITH FORMAT: (FREE)              

            1           2           3           4           5           6           7           8           9          10
 ........................................................................................................................
   1   1.0000E-10  2.0000E-10   0.000       0.000       0.000       0.000       0.000       0.000       0.000       0.000    
   2   2.0000E-10  1.0000E-10  2.0000E-10   0.000       0.000      8.0000E-10  8.0000E-10  5.0000E-10   0.000       0.000    
   3    0.000      5.0000E-10  1.0000E-10  1.0000E-10  8.0000E-10  8.0000E-10  5.0000E-10  5.0000E-10   0.000       0.000    
   4   8.0000E-10  5.0000E-10  1.0000E-10  1.0000E-10  1.0000E-10  1.0000E-10  1.0000E-10  1.0000E-10  2.0000E-10   0.000    
   5   8.0000E-10  5.0000E-10  1.0000E-10  1.0000E-10  1.0000E-10  1.0000E-10  1.0000E-10  1.0000E-10  1.0000E-10  1.0000E-10
   6   8.0000E-10  5.0000E-10  5.0000E-10  2.0000E-10  2.0000E-10  1.0000E-10  1.0000E-10  1.0000E-10  1.0000E-10  5.0000E-10
   7   8.0000E-10  5.0000E-10  5.0000E-10  2.0000E-10  2.0000E-10  1.0000E-10  1.0000E-10  2.0000E-10  2.0000E-10   0.000    
   8    0.000      5.0000E-10  5.0000E-10  2.0000E-10  2.0000E-10  1.0000E-10  1.0000E-10  2.0000E-10  5.0000E-10   0.000    
   9    0.000      5.0000E-10  5.0000E-10  2.0000E-10  2.0000E-10  1.0000E-10  1.0000E-10  2.0000E-10  5.0000E-10   0.000    
  10    0.000      5.0000E-10  5.0000E-10  2.0000E-10  2.0000E-10  1.0000E-10  1.0000E-10  2.0000E-10  5.0000E-10  8.0000E-10
  11    0.000      1.0000E-10  1.0000E-10  1.0000E-10  1.0000E-10  1.0000E-10  1.0000E-10  2.0000E-10  5.0000E-10   0.000    
  12   1.0000E-10  1.0000E-10  1.0000E-10  1.0000E-10  1.0000E-10  1.0000E-10  1.0000E-10  1.0000E-10  2.0000E-10   0.000    
  13   1.0000E-10  1.0000E-10  2.0000E-10  2.0000E-10  2.0000E-10  2.0000E-10  2.0000E-10  1.0000E-10  1.0000E-10   0.000    
  14    0.000      2.0000E-10  5.0000E-10  5.0000E-10  5.0000E-10  5.0000E-10  5.0000E-10  2.0000E-10  1.0000E-10   0.000    
  15    0.000       0.000      8.0000E-10  8.0000E-10  8.0000E-10  8.0000E-10   0.000       0.000       0.000       0.000    

                  ET RATE =  5.000000E-09

 USING ET EXTINCTION DEPTH FROM PREVIOUS STRESS PERIOD. CURRENT PERIOD IS:      35

 USING EXTINCTION WATER CONTENT FROM PREVIOUS STRESS PERIOD. CURRENT PERIOD IS:      35

 USING AIR ENTRY PRESSURE FROM PREVIOUS STRESS PERIOD. CURRENT PERIOD IS:      35

 USING ROOT PRESSURE HEAD FROM PREVIOUS STRESS PERIOD. CURRENT PERIOD IS:      35

 USING ROOT ACTIVITY FROM PREVIOUS STRESS PERIOD. CURRENT PERIOD IS:      35

 PROCESSING AG STRESS PERIOD DATA

 READING AG STRESS PERIOD DATA

 READING IRRIGATION SEGMENT

 READING IRRIGATION WELL

 READING SUPPLEMENTAL WELL

 END PROCESSING AG STRESS PERIOD DATA OPTIONS
 
 SOLVING FOR HEAD 
                                                   Max.-Head-Change                         Max.-Flux-Residual
  Residual-Control   Outer-Iter.   Inner-Iter.     Column Row Layer    Maximum-Head-Change  Column Row Layer    Maximum-Flux-Residual          L2-NORM 
          0                 1           2             4    7     1       0.3375904824E-01       4    7    1         0.1796851527E+01      0.3013110755E+01
          0                 2           2             4    7     1      -0.3196232267E-02       4    7    1        -0.1796876451E+00      0.3227196634E+00
          0                 3           2             4    7     1       0.2246527334E-03       4    7    1         0.1264458558E-01      0.2291259649E-01
          0                 4           1             5    7     1       0.9239599411E-05       5    7    1         0.5190656846E-03      0.1166299614E-02

    ------------------------------------------------
       NWT REQUIRED            4 OUTER ITERATIONS 
       AND A TOTAL OF          7 INNER ITERATIONS.
    ------------------------------------------------

 NO OUTPUT CONTROL FOR STRESS PERIOD   35   TIME STEP    1
 
 SOLVING FOR HEAD 
                                                   Max.-Head-Change                         Max.-Flux-Residual
  Residual-Control   Outer-Iter.   Inner-Iter.     Column Row Layer    Maximum-Head-Change  Column Row Layer    Maximum-Flux-Residual          L2-NORM 
          0                 1           2             4    7     1       0.3305883996E-01       4    7    1         0.1759170583E+01      0.2934341616E+01
          0                 2           2             4    7     1      -0.3129074601E-02       4    7    1        -0.1759194463E+00      0.2879921242E+00
          0                 3           2             4    7     1       0.2200047345E-03       4    7    1         0.1238010129E-01      0.2053652414E-01
          0                 4           1             5    7     1       0.9137526969E-05       5    7    1         0.5131382813E-03      0.1086579978E-02

    ------------------------------------------------
       NWT REQUIRED            4 OUTER ITERATIONS 
       AND A TOTAL OF          7 INNER ITERATIONS.
    ------------------------------------------------

 NO OUTPUT CONTROL FOR STRESS PERIOD   35   TIME STEP    2
 
 SOLVING FOR HEAD 
                                                   Max.-Head-Change                         Max.-Flux-Residual
  Residual-Control   Outer-Iter.   Inner-Iter.     Column Row Layer    Maximum-Head-Change  Column Row Layer    Maximum-Flux-Residual          L2-NORM 
          0                 1           2             4    7     1       0.3238145406E-01       4    7    1         0.1722736821E+01      0.2879711458E+01
          0                 2           2             4    7     1      -0.3064149409E-02       4    7    1        -0.1722759587E+00      0.2825504032E+00
          0                 3           2             4    7     1       0.2155074866E-03       4    7    1         0.1212432568E-01      0.2016329110E-01
          0                 4           1             5    7     1       0.9033134746E-05       5    7    1         0.5071055239E-03      0.1070825213E-02

    ------------------------------------------------
       NWT REQUIRED            4 OUTER ITERATIONS 
       AND A TOTAL OF          7 INNER ITERATIONS.
    ------------------------------------------------

 NO OUTPUT CONTROL FOR STRESS PERIOD   35   TIME STEP    3
 
 SOLVING FOR HEAD 
                                                   Max.-Head-Change                         Max.-Flux-Residual
  Residual-Control   Outer-Iter.   Inner-Iter.     Column Row Layer    Maximum-Head-Change  Column Row Layer    Maximum-Flux-Residual          L2-NORM 
          0                 1           2             4    7     1       0.3172575877E-01       4    7    1         0.1687485626E+01      0.2832207134E+01
          0                 2           2             4    7     1      -0.3001338539E-02       4    7    1        -0.1687507404E+00      0.2777957327E+00
          0                 3           2             4    7     1       0.2111539309E-03       4    7    1         0.1187683101E-01      0.1983201723E-01
          0                 4           1             5    7     1       0.8927804232E-05       5    7    1         0.5010598954E-03      0.1056139848E-02

    ------------------------------------------------
       NWT REQUIRED            4 OUTER ITERATIONS 
       AND A TOTAL OF          7 INNER ITERATIONS.
    ------------------------------------------------

 NO OUTPUT CONTROL FOR STRESS PERIOD   35   TIME STEP    4
 
 SOLVING FOR HEAD 
                                                   Max.-Head-Change                         Max.-Flux-Residual
  Residual-Control   Outer-Iter.   Inner-Iter.     Column Row Layer    Maximum-Head-Change  Column Row Layer    Maximum-Flux-Residual          L2-NORM 
          0                 1           2             4    7     1       0.3109069955E-01       4    7    1         0.1653358807E+01      0.2786108301E+01
          0                 2           2             4    7     1      -0.2940538133E-02       4    7    1        -0.1653379652E+00      0.2731871598E+00
          0                 3           2             4    7     1       0.2069369864E-03       4    7    1         0.1163720469E-01      0.1951049934E-01
          0                 4           1             4    8     1       0.8825775308E-05       5    7    1         0.4949883075E-03      0.1041749270E-02

    ------------------------------------------------
       NWT REQUIRED            4 OUTER ITERATIONS 
       AND A TOTAL OF          7 INNER ITERATIONS.
    ------------------------------------------------

 NO OUTPUT CONTROL FOR STRESS PERIOD   35   TIME STEP    5
 
 SOLVING FOR HEAD 
                                                   Max.-Head-Change                         Max.-Flux-Residual
  Residual-Control   Outer-Iter.   Inner-Iter.     Column Row Layer    Maximum-Head-Change  Column Row Layer    Maximum-Flux-Residual          L2-NORM 
          0                 1           2             4    7     1       0.3047528908E-01       4    7    1         0.1620301753E+01      0.2741353007E+01
          0                 2           2             4    7     1      -0.2881666134E-02       4    7    1        -0.1620330603E+00      0.2687186954E+00
          0                 3           2             4    7     1       0.2028490975E-03       4    7    1         0.1140501268E-01      0.1919821418E-01
          0                 4           1             4    8     1       0.8739293037E-05       5    7    1         0.4891444232E-03      0.1027654970E-02

    ------------------------------------------------
       NWT REQUIRED            4 OUTER ITERATIONS 
       AND A TOTAL OF          7 INNER ITERATIONS.
    ------------------------------------------------

 NO OUTPUT CONTROL FOR STRESS PERIOD   35   TIME STEP    6
 
 SOLVING FOR HEAD 
                                                   Max.-Head-Change                         Max.-Flux-Residual
  Residual-Control   Outer-Iter.   Inner-Iter.     Column Row Layer    Maximum-Head-Change  Column Row Layer    Maximum-Flux-Residual          L2-NORM 
          0                 1           2             4    7     1       0.2987874107E-01       4    7    1         0.1588270771E+01      0.2697876864E+01
          0                 2           2             4    7     1      -0.4616040593E-02       4    7    1        -0.2550272285E+00      0.3640457283E+00
          0                 3           2             4    7     1       0.2055058606E-02       4    7    1         0.1140500999E+00      0.2422790784E+00
          0                 4           2             5    7     1       0.2233580027E-03       5    7    1         0.1274553112E-01      0.2552639490E-01
          0                 5           1             5    7     1       0.2984043944E-04       5    7    1         0.1691757628E-02      0.3273713127E-02

    ------------------------------------------------
       NWT REQUIRED            5 OUTER ITERATIONS 
       AND A TOTAL OF          9 INNER ITERATIONS.
    ------------------------------------------------

 NO OUTPUT CONTROL FOR STRESS PERIOD   35   TIME STEP    7
 
 SOLVING FOR HEAD 
                                                   Max.-Head-Change                         Max.-Flux-Residual
  Residual-Control   Outer-Iter.   Inner-Iter.     Column Row Layer    Maximum-Head-Change  Column Row Layer    Maximum-Flux-Residual          L2-NORM 
          0                 1           2             4    7     1       0.2930202380E-01       4    7    1         0.1557271271E+01      0.2656606955E+01
          0                 2           2             4    7     1      -0.2767914511E-02       4    7    1        -0.1557289605E+00      0.2556880556E+00
          0                 3           2             4    7     1       0.1952102324E-03       4    7    1         0.1096373837E-01      0.1865456662E-01
          0                 4           1             5    6     1       0.9891334266E-05       5    6    1         0.5440963932E-03      0.1123998217E-02

    ------------------------------------------------
       NWT REQUIRED            4 OUTER ITERATIONS 
       AND A TOTAL OF          7 INNER ITERATIONS.
    ------------------------------------------------

 NO OUTPUT CONTROL FOR STRESS PERIOD   35   TIME STEP    8
 
 SOLVING FOR HEAD 
                                                   Max.-Head-Change                         Max.-Flux-Residual
  Residual-Control   Outer-Iter.   Inner-Iter.     Column Row Layer    Maximum-Head-Change  Column Row Layer    Maximum-Flux-Residual          L2-NORM 
          0                 1           2             5    8     1       0.1463391986E+00       5    8    1         0.8048351756E+01      0.8448823677E+01
          0                 2           2             5    8     1       0.5570295677E-01       5    8    1         0.3075742491E+01      0.3097941464E+01
          0                 3           2             5    8     1       0.2413823060E-01       5    8    1         0.1328483723E+01      0.1357300336E+01
          0                 4           2             5    8     1       0.9541706614E-02       5    8    1         0.5262410525E+00      0.5268751442E+00
          0                 5           1             5    8     1       0.3768229746E-02       5    8    1         0.2079108240E+00      0.2079523483E+00
          0                 6           1             5    8     1       0.1487866047E-02       5    8    1         0.8209998293E-01      0.8210790457E-01
          0                 7           1             5    8     1       0.5874521648E-03       5    8    1         0.3241602182E-01      0.3241863522E-01
          0                 8           1             5    8     1       0.2319409329E-03       5    8    1         0.1279871737E-01      0.1279971193E-01
          0                 9           1             5    8     1       0.9157595716E-04       5    8    1         0.5053251375E-02      0.5053641027E-02

    ------------------------------------------------
       NWT REQUIRED            9 OUTER ITERATIONS 
       AND A TOTAL OF         13 INNER ITERATIONS.
    ------------------------------------------------

 NO OUTPUT CONTROL FOR STRESS PERIOD   35   TIME STEP    9
 
 SOLVING FOR HEAD 
                                                   Max.-Head-Change                         Max.-Flux-Residual
  Residual-Control   Outer-Iter.   Inner-Iter.     Column Row Layer    Maximum-Head-Change  Column Row Layer    Maximum-Flux-Residual          L2-NORM 
          0                 1           2             5    8     1       0.1774592533E+00       5    8    1         0.9754766754E+01      0.1012218066E+02
          0                 2           2             5    8     1       0.7015506880E-01       5    8    1         0.3869895892E+01      0.3879824327E+01
          0                 3           2             5    8     1       0.2770514974E-01       5    8    1         0.1528566264E+01      0.1528903957E+01
          0                 4           2             5    8     1       0.1093873947E-01       5    8    1         0.6036263547E+00      0.6036830145E+00
          0                 5           1             5    8     1       0.4318715324E-02       5    8    1         0.2383180097E+00      0.2383371123E+00
          0                 6           1             5    8     1       0.1705053054E-02       5    8    1         0.9409019745E-01      0.9409750451E-01
          0                 7           1             5    8     1       0.6731632743E-03       5    8    1         0.3714726629E-01      0.3715013208E-01
          0                 8           1             5    8     1       0.2657680530E-03       5    8    1         0.1466592549E-01      0.1466705537E-01
          0                 9           1             5    8     1       0.1049264805E-03       5    8    1         0.5790176535E-02      0.5790622486E-02
          0                10           1             5    8     1       0.4142546892E-04       5    8    1         0.2285989080E-02      0.2286165132E-02

    ------------------------------------------------
       NWT REQUIRED           10 OUTER ITERATIONS 
       AND A TOTAL OF         14 INNER ITERATIONS.
    ------------------------------------------------

 NO OUTPUT CONTROL FOR STRESS PERIOD   35   TIME STEP   10
 
 SOLVING FOR HEAD 
                                                   Max.-Head-Change                         Max.-Flux-Residual
  Residual-Control   Outer-Iter.   Inner-Iter.     Column Row Layer    Maximum-Head-Change  Column Row Layer    Maximum-Flux-Residual          L2-NORM 
          0                 1           2             5    8     1       0.1596820993E+00       5    8    1         0.8760402887E+01      0.9236377616E+01
          0                 2           2             5    8     1       0.6109451412E-01       5    8    1         0.3371655514E+01      0.3392256852E+01
          0                 3           2             5    8     1       0.2630188164E-01       5    8    1         0.1446939581E+01      0.1474322582E+01
          0                 4           2             5    8     1       0.1040311233E-01       5    8    1         0.5734271880E+00      0.5740432160E+00
          0                 5           2             5    8     1       0.4111127273E-02       5    8    1         0.2266965456E+00      0.2267391348E+00
          0                 6           1             5    8     1       0.1624351775E-02       5    8    1         0.8957776080E-01      0.8958631586E-01
          0                 7           1             5    8     1       0.6417750558E-03       5    8    1         0.3539244547E-01      0.3539531835E-01
          0                 8           1             5    8     1       0.2535607893E-03       5    8    1         0.1398335911E-01      0.1398445709E-01
          0                 9           1             5    8     1       0.1001799021E-03       5    8    1         0.5524721660E-02      0.5525152504E-02
          0                10           1             5    8     1       0.3958028720E-04       5    8    1         0.2182774335E-02      0.2182944496E-02

    ------------------------------------------------
       NWT REQUIRED           10 OUTER ITERATIONS 
       AND A TOTAL OF         15 INNER ITERATIONS.
    ------------------------------------------------

 NO OUTPUT CONTROL FOR STRESS PERIOD   35   TIME STEP   11
 
 SOLVING FOR HEAD 
                                                   Max.-Head-Change                         Max.-Flux-Residual
  Residual-Control   Outer-Iter.   Inner-Iter.     Column Row Layer    Maximum-Head-Change  Column Row Layer    Maximum-Flux-Residual          L2-NORM 
          0                 1           2             5    8     1       0.1442022895E+00       5    8    1         0.7891043300E+01      0.8496616365E+01
          0                 2           2             5    8     1       0.5710348807E-01       5    8    1         0.3148210660E+01      0.3163731840E+01
          0                 3           2             5    8     1       0.2257070229E-01       5    8    1         0.1244388027E+01      0.1244827877E+01
          0                 4           2             5    8     1       0.8917882462E-02       5    8    1         0.4918067635E+00      0.4918589700E+00
          0                 5           1             5    8     1       0.3523257702E-02       5    8    1         0.1943071267E+00      0.1943233553E+00
          0                 6           1             5    8     1       0.1391938757E-02       5    8    1         0.7676591660E-01      0.7677198368E-01
          0                 7           1             5    8     1       0.5499135722E-03       5    8    1         0.3032798023E-01      0.3033035095E-01
          0                 8           1             5    8     1       0.2172543440E-03       5    8    1         0.1198167994E-01      0.1198261434E-01
          0                 9           1             5    8     1       0.8583065876E-04       5    8    1         0.4733602043E-02      0.4733971039E-02

    ------------------------------------------------
       NWT REQUIRED            9 OUTER ITERATIONS 
       AND A TOTAL OF         13 INNER ITERATIONS.
    ------------------------------------------------

 NO OUTPUT CONTROL FOR STRESS PERIOD   35   TIME STEP   12
 
 SOLVING FOR HEAD 
                                                   Max.-Head-Change                         Max.-Flux-Residual
  Residual-Control   Outer-Iter.   Inner-Iter.     Column Row Layer    Maximum-Head-Change  Column Row Layer    Maximum-Flux-Residual          L2-NORM 
          0                 1           2             5    8     1       0.1304761284E+00       5    8    1         0.7125019574E+01      0.7876224172E+01
          0                 2           2             5    8     1       0.4952034050E-01       5    8    1         0.2733729153E+01      0.2761087658E+01
          0                 3           2             5    8     1       0.2171175699E-01       5    8    1         0.1194886060E+01      0.1228123764E+01
          0                 4           2             5    8     1       0.8578611121E-02       5    8    1         0.4732999513E+00      0.4740085612E+00
          0                 5           1             5    8     1       0.3385859538E-02       5    8    1         0.1868936292E+00      0.1869361897E+00
          0                 6           1             5    8     1       0.1336052251E-02       5    8    1         0.7375545488E-01      0.7376294650E-01
          0                 7           1             5    8     1       0.5271783162E-03       5    8    1         0.2910299258E-01      0.2910540068E-01
          0                 8           1             5    8     1       0.2080114774E-03       5    8    1         0.1148337340E-01      0.1148428466E-01
          0                 9           1             5    8     1       0.8207598828E-04       5    8    1         0.4531049225E-02      0.4531406051E-02

    ------------------------------------------------
       NWT REQUIRED            9 OUTER ITERATIONS 
       AND A TOTAL OF         13 INNER ITERATIONS.
    ------------------------------------------------

 NO OUTPUT CONTROL FOR STRESS PERIOD   35   TIME STEP   13
 
 SOLVING FOR HEAD 
                                                   Max.-Head-Change                         Max.-Flux-Residual
  Residual-Control   Outer-Iter.   Inner-Iter.     Column Row Layer    Maximum-Head-Change  Column Row Layer    Maximum-Flux-Residual          L2-NORM 
          0                 1           2             5    8     1       0.1182050867E+00       5    8    1         0.6446065201E+01      0.7354464664E+01
          0                 2           2             5    8     1       0.4679940911E-01       5    8    1         0.2582880539E+01      0.2605731951E+01
          0                 3           2             5    8     1       0.1847782068E-01       5    8    1         0.1019604621E+01      0.1020164217E+01
          0                 4           2             5    8     1       0.7291497531E-02       5    8    1         0.4025299654E+00      0.4025787402E+00
          0                 5           1             5    8     1       0.2876951277E-02       5    8    1         0.1588284942E+00      0.1588422938E+00
          0                 6           1             5    8     1       0.1135110131E-02       5    8    1         0.6266714198E-01      0.6267216460E-01
          0                 7           1             5    8     1       0.4478590972E-03       5    8    1         0.2472545527E-01      0.2472740595E-01
          0                 8           1             5    8     1       0.1767031861E-03       5    8    1         0.9755455333E-02      0.9756222235E-02
          0                 9           1             5    8     1       0.6971837867E-04       5    8    1         0.3849023025E-02      0.3849327439E-02

    ------------------------------------------------
       NWT REQUIRED            9 OUTER ITERATIONS 
       AND A TOTAL OF         13 INNER ITERATIONS.
    ------------------------------------------------

 NO OUTPUT CONTROL FOR STRESS PERIOD   35   TIME STEP   14
 
 SOLVING FOR HEAD 
                                                   Max.-Head-Change                         Max.-Flux-Residual
  Residual-Control   Outer-Iter.   Inner-Iter.     Column Row Layer    Maximum-Head-Change  Column Row Layer    Maximum-Flux-Residual          L2-NORM 
          0                 1           2             5    8     1       0.1073103429E+00       5    8    1         0.5838309326E+01      0.6912388704E+01
          0                 2           2             5    8     1       0.4033187636E-01       5    8    1         0.2229562494E+01      0.2265777857E+01
          0                 3           2             5    8     1       0.1809123851E-01       5    8    1         0.9949938169E+00      0.1034814179E+01
          0                 4           2             5    8     1       0.7149437614E-02       5    8    1         0.3944350996E+00      0.3952494244E+00
          0                 5           1             5    8     1       0.2821644272E-02       5    8    1         0.1557593389E+00      0.1558026687E+00
          0                 6           1             5    8     1       0.1113304098E-02       5    8    1         0.6146399249E-01      0.6147065856E-01
          0                 7           1             5    8     1       0.4392385592E-03       5    8    1         0.2425039333E-01      0.2425243221E-01
          0                 8           1             5    8     1       0.1732933185E-03       5    8    1         0.9567592174E-02      0.9568355544E-02
          0                 9           1             5    8     1       0.6836944102E-04       5    8    1         0.3774708590E-02      0.3775006580E-02

    ------------------------------------------------
       NWT REQUIRED            9 OUTER ITERATIONS 
       AND A TOTAL OF         13 INNER ITERATIONS.
    ------------------------------------------------

 NO OUTPUT CONTROL FOR STRESS PERIOD   35   TIME STEP   15
 
 SOLVING FOR HEAD 
                                                   Max.-Head-Change                         Max.-Flux-Residual
  Residual-Control   Outer-Iter.   Inner-Iter.     Column Row Layer    Maximum-Head-Change  Column Row Layer    Maximum-Flux-Residual          L2-NORM 
          0                 1           2             5    7     1       0.3364699201E-01       5    7    1         0.1836036113E+01      0.4100489528E+01
          0                 2           2             4    8     1       0.2714008895E-02       4    7    1        -0.1507451292E+00      0.3536766703E+00
          0                 3           2             4    8     1       0.2216910366E-03       4    8    1         0.1187131272E-01      0.2594318906E-01
          0                 4           1             4    8     1       0.1819859587E-04       4    8    1         0.9960588091E-03      0.1663332518E-02

    ------------------------------------------------
       NWT REQUIRED            4 OUTER ITERATIONS 
       AND A TOTAL OF          7 INNER ITERATIONS.
    ------------------------------------------------

 NO OUTPUT CONTROL FOR STRESS PERIOD   35   TIME STEP   16
 
 SOLVING FOR HEAD 
                                                   Max.-Head-Change                         Max.-Flux-Residual
  Residual-Control   Outer-Iter.   Inner-Iter.     Column Row Layer    Maximum-Head-Change  Column Row Layer    Maximum-Flux-Residual          L2-NORM 
          0                 1           2             5    8     1      -0.8191708899E-01       5    8    1        -0.4611656223E+01      0.5904688494E+01
          0                 2           2             5    8     1       0.5998725854E-02       5    8    1         0.3436716346E+00      0.5274816787E+00
          0                 3           2             4    7     1       0.2449232534E-02       4    7    1         0.1356955469E+00      0.2930762545E+00
          0                 4           2             5    6     1       0.2618977012E-03       5    6    1         0.1521037181E-01      0.2318883695E-01
          0                 5           1             5    6     1       0.3422210348E-04       5    6    1         0.1982186361E-02      0.2310815549E-02

    ------------------------------------------------
       NWT REQUIRED            5 OUTER ITERATIONS 
       AND A TOTAL OF          9 INNER ITERATIONS.
    ------------------------------------------------

 NO OUTPUT CONTROL FOR STRESS PERIOD   35   TIME STEP   17
 
 SOLVING FOR HEAD 
                                                   Max.-Head-Change                         Max.-Flux-Residual
  Residual-Control   Outer-Iter.   Inner-Iter.     Column Row Layer    Maximum-Head-Change  Column Row Layer    Maximum-Flux-Residual          L2-NORM 
          0                 1           2             4    8     1       0.1260222809E+00       4    8    1         0.6888215345E+01      0.8665891796E+01
          0                 2           2             4    8     1       0.5067867316E-01       4    8    1         0.2752193711E+01      0.2799919710E+01
          0                 3           2             4    8     1       0.2037907385E-01       4    8    1         0.1108391858E+01      0.1108980024E+01
          0                 4           2             4    8     1       0.8180275449E-02       4    8    1         0.4450290577E+00      0.4450368944E+00
          0                 5           2             4    8     1       0.3287199834E-02       4    8    1         0.1788366246E+00      0.1788381554E+00
          0                 6           2             4    8     1       0.1320943417E-02       4    8    1         0.7186441029E-01      0.7186500599E-01
          0                 7           2             4    8     1       0.5308139426E-03       4    8    1         0.2887834687E-01      0.2887858715E-01
          0                 8           2             4    8     1       0.2133047036E-03       4    8    1         0.1160460591E-01      0.1160470518E-01
          0                 9           1             4    8     1       0.8571533869E-04       4    8    1         0.4663248367E-02      0.4663287033E-02

    ------------------------------------------------
       NWT REQUIRED            9 OUTER ITERATIONS 
       AND A TOTAL OF         17 INNER ITERATIONS.
    ------------------------------------------------

 NO OUTPUT CONTROL FOR STRESS PERIOD   35   TIME STEP   18
 
 SOLVING FOR HEAD 
                                                   Max.-Head-Change                         Max.-Flux-Residual
  Residual-Control   Outer-Iter.   Inner-Iter.     Column Row Layer    Maximum-Head-Change  Column Row Layer    Maximum-Flux-Residual          L2-NORM 
          0                 1           2             4    8     1       0.2035964856E+00       4    8    1         0.1110067494E+02      0.1241654525E+02
          0                 2           2             4    8     1       0.7960629276E-01       4    8    1         0.4331868919E+01      0.4494375173E+01
          0                 3           2             4    8     1       0.3431131469E-01       4    8    1         0.1860307865E+01      0.1955641432E+01
          0                 4           2             4    8     1       0.1381734047E-01       4    8    1         0.7506217829E+00      0.7824046530E+00
          0                 5           2             4    8     1       0.5564301917E-02       4    8    1         0.3021996659E+00      0.3144560452E+00
          0                 6           2             4    8     1       0.2240762579E-02       4    8    1         0.1217019502E+00      0.1264564251E+00
          0                 7           2             4    8     1       0.9023600393E-03       4    8    1         0.4900948650E-01      0.5085389674E-01
          0                 8           2             4    8     1       0.3633814105E-03       4    8    1         0.1973624553E-01      0.2045177821E-01
          0                 9           2             4    8     1       0.1463337175E-03       4    8    1         0.7947805281E-02      0.8225401065E-02
          0                10           1             4    8     1       0.5892844445E-04       4    8    1         0.3200580916E-02      0.3308281198E-02

    ------------------------------------------------
       NWT REQUIRED           10 OUTER ITERATIONS 
       AND A TOTAL OF         19 INNER ITERATIONS.
    ------------------------------------------------

 NO OUTPUT CONTROL FOR STRESS PERIOD   35   TIME STEP   19
 
 SOLVING FOR HEAD 
                                                   Max.-Head-Change                         Max.-Flux-Residual
  Residual-Control   Outer-Iter.   Inner-Iter.     Column Row Layer    Maximum-Head-Change  Column Row Layer    Maximum-Flux-Residual          L2-NORM 
          0                 1           2             5    7     1       0.2035541801E+00       5    7    1         0.1123506452E+02      0.1574219621E+02
          0                 2           2             5    7     1       0.8034815864E-01       5    7    1         0.4434455351E+01      0.6047369406E+01
          0                 3           2             5    7     1       0.3170320803E-01       5    7    1         0.1750274645E+01      0.2404060778E+01
          0                 4           2             5    7     1       0.1250838792E-01       5    7    1         0.6905472001E+00      0.9578104481E+00
          0                 5           2             5    7     1       0.4935116259E-02       5    7    1         0.2724549534E+00      0.3817397774E+00
          0                 6           2             4    8     1       0.1983625288E-02       4    8    1         0.1077050754E+00      0.1521735941E+00
          0                 7           2             4    8     1       0.7990575108E-03       4    8    1         0.4338695809E-01      0.6067451127E-01
          0                 8           2             4    8     1       0.3218784456E-03       4    8    1         0.1747740935E-01      0.2419727702E-01
          0                 9           2             4    8     1       0.1296585897E-03       4    8    1         0.7040287802E-02      0.9652058436E-02
          0                10           1             4    8     1       0.5222834964E-04       4    8    1         0.2835954699E-02      0.3850935221E-02

    ------------------------------------------------
       NWT REQUIRED           10 OUTER ITERATIONS 
       AND A TOTAL OF         19 INNER ITERATIONS.
    ------------------------------------------------

 NO OUTPUT CONTROL FOR STRESS PERIOD   35   TIME STEP   20
 
 SOLVING FOR HEAD 
                                                   Max.-Head-Change                         Max.-Flux-Residual
  Residual-Control   Outer-Iter.   Inner-Iter.     Column Row Layer    Maximum-Head-Change  Column Row Layer    Maximum-Flux-Residual          L2-NORM 
          0                 1           2             5    7     1       0.1824292794E+00       5    7    1         0.1004246019E+02      0.1432411249E+02
          0                 2           2             5    7     1       0.6965133565E-01       5    7    1         0.3853577542E+01      0.5329231842E+01
          0                 3           2             5    7     1       0.2968894757E-01       5    7    1         0.1634274752E+01      0.2292574336E+01
          0                 4           2             4    8     1       0.1179330048E-01       5    7    1         0.6469409254E+00      0.9105711661E+00
          0                 5           2             4    8     1       0.4750493114E-02       4    8    1         0.2579348156E+00      0.3627293152E+00
          0                 6           2             4    8     1       0.1913538680E-02       4    8    1         0.1039045995E+00      0.1445890099E+00
          0                 7           2             4    8     1       0.7707810880E-03       4    8    1         0.4185328836E-01      0.5764471376E-01
          0                 8           2             4    8     1       0.3104703861E-03       4    8    1         0.1685867466E-01      0.2298722474E-01
          0                 9           2             4    8     1       0.1250560572E-03       4    8    1         0.6790659260E-02      0.9168802740E-02
          0                10           1             4    8     1       0.5037148761E-04       4    8    1         0.2735243315E-02      0.3657948410E-02

    ------------------------------------------------
       NWT REQUIRED           10 OUTER ITERATIONS 
       AND A TOTAL OF         19 INNER ITERATIONS.
    ------------------------------------------------

 NO OUTPUT CONTROL FOR STRESS PERIOD   35   TIME STEP   21
 
 SOLVING FOR HEAD 
                                                   Max.-Head-Change                         Max.-Flux-Residual
  Residual-Control   Outer-Iter.   Inner-Iter.     Column Row Layer    Maximum-Head-Change  Column Row Layer    Maximum-Flux-Residual          L2-NORM 
          0                 1           2             5    7     1       0.1636900385E+00       5    7    1         0.8992313492E+01      0.1312834230E+02
          0                 2           2             5    7     1       0.6458967354E-01       5    7    1         0.3570189819E+01      0.5002805793E+01
          0                 3           2             4    8     1       0.2578846767E-01       5    7    1         0.1406552052E+01      0.1984979799E+01
          0                 4           2             4    8     1       0.1038738391E-01       4    8    1         0.5640455548E+00      0.7910507505E+00
          0                 5           2             4    8     1       0.4183925813E-02       4    8    1         0.2271938447E+00      0.3153105936E+00
          0                 6           2             4    8     1       0.1685216509E-02       4    8    1         0.9151074671E-01      0.1257097641E+00
          0                 7           2             4    8     1       0.6787702653E-03       4    8    1         0.3685900653E-01      0.5013025796E-01
          0                 8           2             4    8     1       0.2733917238E-03       4    8    1         0.1484602517E-01      0.1999540106E-01
          0                 9           2             4    8     1       0.1101142330E-03       4    8    1         0.5979601380E-02      0.7977363007E-02
          0                10           1             4    8     1       0.4435036188E-04       4    8    1         0.2408406556E-02      0.3183368566E-02

    ------------------------------------------------
       NWT REQUIRED           10 OUTER ITERATIONS 
       AND A TOTAL OF         19 INNER ITERATIONS.
    ------------------------------------------------

 NO OUTPUT CONTROL FOR STRESS PERIOD   35   TIME STEP   22
 
 SOLVING FOR HEAD 
                                                   Max.-Head-Change                         Max.-Flux-Residual
  Residual-Control   Outer-Iter.   Inner-Iter.     Column Row Layer    Maximum-Head-Change  Column Row Layer    Maximum-Flux-Residual          L2-NORM 
          0                 1           2             5    7     1       0.1491094890E+00       5    7    1         0.8073021461E+01      0.1420544828E+02
          0                 2           2             5    7     1       0.5738279820E-01       5    7    1         0.3138981937E+01      0.5324941937E+01
          0                 3           2             5    7     1       0.2523079742E-01       5    7    1         0.1371702307E+01      0.2342090158E+01
          0                 4           2             4    8     1       0.1014583758E-01       5    7    1         0.5514641999E+00      0.9394683320E+00
          0                 5           2             4    8     1       0.4086547530E-02       4    8    1         0.2218962336E+00      0.3775610617E+00
          0                 6           2             4    8     1       0.1654833999E-02       4    8    1         0.8963527140E-01      0.1519587800E+00
          0                 7           2             4    8     1       0.6686686250E-03       4    8    1         0.3621735598E-01      0.6116263226E-01
          0                 8           2             4    8     1       0.2701878213E-03       4    8    1         0.1463445755E-01      0.2461928706E-01
          0                 9           1             4    8     1       0.1091738356E-03       4    8    1         0.5913310679E-02      0.9909957682E-02
          0                10           1             4    8     1       0.4411340805E-04       4    8    1         0.2389374938E-02      0.3989132519E-02

    ------------------------------------------------
       NWT REQUIRED           10 OUTER ITERATIONS 
       AND A TOTAL OF         18 INNER ITERATIONS.
    ------------------------------------------------

 NO OUTPUT CONTROL FOR STRESS PERIOD   35   TIME STEP   23
 
 SOLVING FOR HEAD 
                                                   Max.-Head-Change                         Max.-Flux-Residual
  Residual-Control   Outer-Iter.   Inner-Iter.     Column Row Layer    Maximum-Head-Change  Column Row Layer    Maximum-Flux-Residual          L2-NORM 
          0                 1           2             5    6     1       0.2025395348E+00       5    6    1         0.1102592388E+02      0.1834099616E+02
          0                 2           2             5    6     1       0.8106268562E-01       5    6    1         0.4427621392E+01      0.7428447809E+01
          0                 3           2             5    6     1       0.3246016621E-01       5    6    1         0.1770628882E+01      0.3030314954E+01
          0                 4           2             4    7     1       0.1303557751E-01       5    6    1         0.7091945299E+00      0.1238471680E+01
          0                 5           2             4    7     1       0.5374209495E-02       4    7    1         0.2864349188E+00      0.5063198078E+00
          0                 6           2             4    7     1       0.2215717054E-02       4    7    1         0.1180905286E+00      0.2070771975E+00
          0                 7           2             4    7     1       0.9135326021E-03       4    7    1         0.4868754601E-01      0.8472072589E-01
          0                 8           2             4    7     1       0.3766509493E-03       4    7    1         0.2007380768E-01      0.3467270406E-01
          0                 9           2             4    7     1       0.1552941481E-03       4    7    1         0.8276485281E-02      0.1419437424E-01
          0                10           1             4    7     1       0.6402776517E-04       4    7    1         0.3412418730E-02      0.5812543134E-02

    ------------------------------------------------
       NWT REQUIRED           10 OUTER ITERATIONS 
       AND A TOTAL OF         19 INNER ITERATIONS.
    ------------------------------------------------

 NO OUTPUT CONTROL FOR STRESS PERIOD   35   TIME STEP   24
 
 SOLVING FOR HEAD 
                                                   Max.-Head-Change                         Max.-Flux-Residual
  Residual-Control   Outer-Iter.   Inner-Iter.     Column Row Layer    Maximum-Head-Change  Column Row Layer    Maximum-Flux-Residual          L2-NORM 
          0                 1           2             4    7     1       0.2434594816E+00       4    7    1         0.1302703690E+02      0.1955055818E+02
          0                 2           2             4    7     1       0.9720923046E-01       4    7    1         0.5219454073E+01      0.7693382018E+01
          0                 3           2             4    7     1       0.4204594810E-01       4    7    1         0.2251502849E+01      0.3374335339E+01
          0                 4           2             4    7     1       0.1715464518E-01       4    7    1         0.9227363679E+00      0.1297629509E+01
          0                 5           2             4    7     1       0.6972875856E-02       4    7    1         0.3761135614E+00      0.5185214534E+00
          0                 6           2             4    7     1       0.2832103811E-02       4    7    1         0.1527728503E+00      0.2108134500E+00
          0                 7           2             4    7     1       0.1150468927E-02       4    7    1         0.6204930238E-01      0.8573044080E-01
          0                 8           2             4    7     1       0.4674530005E-03       4    7    1         0.2520700300E-01      0.3487101143E-01
          0                 9           2             4    7     1       0.1899746104E-03       4    7    1         0.1024244890E-01      0.1418666005E-01
          0                10           1             4    7     1       0.7722225321E-04       4    7    1         0.4162746896E-02      0.5772625695E-02

    ------------------------------------------------
       NWT REQUIRED           10 OUTER ITERATIONS 
       AND A TOTAL OF         19 INNER ITERATIONS.
    ------------------------------------------------

 NO OUTPUT CONTROL FOR STRESS PERIOD   35   TIME STEP   25
 
 SOLVING FOR HEAD 
                                                   Max.-Head-Change                         Max.-Flux-Residual
  Residual-Control   Outer-Iter.   Inner-Iter.     Column Row Layer    Maximum-Head-Change  Column Row Layer    Maximum-Flux-Residual          L2-NORM 
          0                 1           2             4    7     1       0.2274647543E+00       4    7    1         0.1228676395E+02      0.1761841311E+02
          0                 2           2             4    7     1       0.9230520033E-01       4    7    1         0.4982168187E+01      0.6897914824E+01
          0                 3           2             4    7     1       0.3746818501E-01       4    7    1         0.2022052669E+01      0.2791893770E+01
          0                 4           2             4    7     1       0.1521307710E-01       4    7    1         0.8207879473E+00      0.1134114914E+01
          0                 5           2             4    7     1       0.6178490555E-02       4    7    1         0.3332854999E+00      0.4608330320E+00
          0                 6           2             4    7     1       0.2509874966E-02       4    7    1         0.1353636470E+00      0.1873040953E+00
          0                 7           2             4    7     1       0.1019811651E-02       4    7    1         0.5499112694E-01      0.7614751321E-01
          0                 8           2             4    7     1       0.4144576390E-03       4    7    1         0.2234496823E-01      0.3096406006E-01
          0                 9           2             4    7     1       0.1684717284E-03       4    7    1         0.9081509771E-02      0.1259343748E-01
          0                10           1             4    7     1       0.6849443489E-04       4    7    1         0.3691662171E-02      0.5122785810E-02

    ------------------------------------------------
       NWT REQUIRED           10 OUTER ITERATIONS 
       AND A TOTAL OF         19 INNER ITERATIONS.
    ------------------------------------------------

 NO OUTPUT CONTROL FOR STRESS PERIOD   35   TIME STEP   26
 
 SOLVING FOR HEAD 
                                                   Max.-Head-Change                         Max.-Flux-Residual
  Residual-Control   Outer-Iter.   Inner-Iter.     Column Row Layer    Maximum-Head-Change  Column Row Layer    Maximum-Flux-Residual          L2-NORM 
          0                 1           2             4    7     1       0.2114714961E+00       4    7    1         0.1142846771E+02      0.1603653132E+02
          0                 2           2             4    7     1       0.8277328725E-01       4    7    1         0.4511855368E+01      0.5626501353E+01
          0                 3           2             4    7     1       0.3534377450E-01       4    7    1         0.1922571797E+01      0.2405986848E+01
          0                 4           2             4    7     1       0.1415849216E-01       4    7    1         0.7725590534E+00      0.9549365892E+00
          0                 5           2             4    7     1       0.5670065007E-02       4    7    1         0.3093216861E+00      0.3800333763E+00
          0                 6           2             4    7     1       0.2270623873E-02       4    7    1         0.1238774223E+00      0.1513024594E+00
          0                 7           2             4    7     1       0.9092805836E-03       4    7    1         0.4960728848E-01      0.6024368337E-01
          0                 8           2             4    7     1       0.3641220450E-03       4    7    1         0.1986543774E-01      0.2399041157E-01
          0                 9           1             4    7     1       0.1458117297E-03       4    7    1         0.7955117352E-02      0.9554789126E-02
          0                10           1             4    7     1       0.5838946628E-04       4    7    1         0.3185602285E-02      0.3805934029E-02

    ------------------------------------------------
       NWT REQUIRED           10 OUTER ITERATIONS 
       AND A TOTAL OF         18 INNER ITERATIONS.
    ------------------------------------------------

 NO OUTPUT CONTROL FOR STRESS PERIOD   35   TIME STEP   27
 
 SOLVING FOR HEAD 
                                                   Max.-Head-Change                         Max.-Flux-Residual
  Residual-Control   Outer-Iter.   Inner-Iter.     Column Row Layer    Maximum-Head-Change  Column Row Layer    Maximum-Flux-Residual          L2-NORM 
          0                 1           2             4    7     1       0.1926168039E+00       4    7    1         0.1054335349E+02      0.1440778046E+02
          0                 2           2             4    7     1       0.7711651726E-01       4    7    1         0.4204898455E+01      0.5239071523E+01
          0                 3           2             4    7     1       0.3087431790E-01       4    7    1         0.1684909750E+01      0.2071262149E+01
          0                 4           2             4    7     1       0.1236076700E-01       4    7    1         0.6744440875E+00      0.8241462761E+00
          0                 5           2             4    7     1       0.4948694441E-02       4    7    1         0.2700323578E+00      0.3280645595E+00
          0                 6           2             4    7     1       0.1981221086E-02       4    7    1         0.1081077522E+00      0.1306040849E+00
          0                 7           2             4    7     1       0.7931809862E-03       4    7    1         0.4328125059E-01      0.5200158623E-01
          0                 8           2             4    7     1       0.3175475163E-03       4    7    1         0.1732761254E-01      0.2070775355E-01
          0                 9           1             4    7     1       0.1271283004E-03       4    7    1         0.6937050608E-02      0.8247190639E-02
          0                10           1             4    7     1       0.5089474755E-04       4    7    1         0.2777205693E-02      0.3284994026E-02

    ------------------------------------------------
       NWT REQUIRED           10 OUTER ITERATIONS 
       AND A TOTAL OF         18 INNER ITERATIONS.
    ------------------------------------------------

 NO OUTPUT CONTROL FOR STRESS PERIOD   35   TIME STEP   28
 
 SOLVING FOR HEAD 
                                                   Max.-Head-Change                         Max.-Flux-Residual
  Residual-Control   Outer-Iter.   Inner-Iter.     Column Row Layer    Maximum-Head-Change  Column Row Layer    Maximum-Flux-Residual          L2-NORM 
          0                 1           2             4    7     1       0.1755181911E+00       4    7    1         0.9588658698E+01      0.1315539284E+02
          0                 2           2             4    7     1       0.6797753504E-01       4    7    1         0.3713915471E+01      0.4595206029E+01
          0                 3           2             4    7     1       0.2950292681E-01       4    7    1         0.1604320615E+01      0.1992029216E+01
          0                 4           2             4    7     1       0.1181110342E-01       4    7    1         0.6448326144E+00      0.7891778356E+00
          0                 5           2             4    7     1       0.4728386303E-02       4    7    1         0.2579991994E+00      0.3138905535E+00
          0                 6           2             4    7     1       0.1892921008E-02       4    7    1         0.1032953465E+00      0.1249608916E+00
          0                 7           2             4    7     1       0.7577903358E-03       4    7    1         0.4135172655E-01      0.4974946553E-01
          0                 8           2             4    7     1       0.3033630529E-03       4    7    1         0.1655430760E-01      0.1980921081E-01
          0                 9           1             4    7     1       0.1214432524E-03       4    7    1         0.6627109391E-02      0.7888630075E-02
          0                10           1             4    7     1       0.4861622969E-04       4    7    1         0.2652983429E-02      0.3141897584E-02

    ------------------------------------------------
       NWT REQUIRED           10 OUTER ITERATIONS 
       AND A TOTAL OF         18 INNER ITERATIONS.
    ------------------------------------------------

 NO OUTPUT CONTROL FOR STRESS PERIOD   35   TIME STEP   29
 
 SOLVING FOR HEAD 
                                                   Max.-Head-Change                         Max.-Flux-Residual
  Residual-Control   Outer-Iter.   Inner-Iter.     Column Row Layer    Maximum-Head-Change  Column Row Layer    Maximum-Flux-Residual          L2-NORM 
          0                 1           2             4    7     1       0.1602589810E+00       4    7    1         0.8737167909E+01      0.1210207334E+02
          0                 2           2             4    7     1       0.6415445472E-01       4    7    1         0.3502037504E+01      0.4330705498E+01
          0                 3           2             4    7     1       0.2568191679E-01       4    7    1         0.1401424729E+01      0.1706825525E+01
          0                 4           2             4    7     1       0.1028076851E-01       4    7    1         0.5610185305E+00      0.6793346841E+00
          0                 5           2             4    7     1       0.4115489703E-02       4    7    1         0.2245873246E+00      0.2704410627E+00
          0                 6           2             4    7     1       0.1647457487E-02       4    7    1         0.8990386791E-01      0.1076755879E+00
          0                 7           2             4    7     1       0.6594836552E-03       4    7    1         0.3598913610E-01      0.4287663767E-01
          0                 8           2             4    7     1       0.2639921450E-03       4    7    1         0.1440657880E-01      0.1707574711E-01
          0                 9           1             4    7     1       0.1056757035E-03       4    7    1         0.5766967903E-02      0.6801330763E-02
          0                10           1             4    7     1       0.4230157789E-04       4    7    1         0.2308507812E-02      0.2709331588E-02

    ------------------------------------------------
       NWT REQUIRED           10 OUTER ITERATIONS 
       AND A TOTAL OF         18 INNER ITERATIONS.
    ------------------------------------------------

 NO OUTPUT CONTROL FOR STRESS PERIOD   35   TIME STEP   30



 STREAM LISTING     PERIOD     35   STEP       30

 LAYER ROW COL. STREAM  RCH.  FLOW INTO     FLOW TO   FLOW OUT OF   OVRLND.     DIRECT     STREAM       STREAM     STREAM     STREAM   STREAMBED  STREAMBED
                SEG.NO.  NO.  STRM. RCH.    AQUIFER    STRM. RCH.    RUNOFF     PRECIP       ET          HEAD       DEPTH      WIDTH   CONDCTNC.   GRADIENT

   1    1    1     1     1    2.6249E+01  2.5084E-01   2.5998E+01  0.000E+00  0.000E+00  0.000E+00  1.09424E+03  1.197E+00  1.328E+01  5.977E-02  1.399E+00
   1    2    2     1     2    2.5998E+01  3.8795E-01   2.5610E+01  0.000E+00  0.000E+00  0.000E+00  1.08925E+03  1.192E+00  1.322E+01  9.254E-02  1.397E+00
   1    3    3     1     3    2.5610E+01  3.3035E-01   2.5280E+01  0.000E+00  0.000E+00  0.000E+00  1.08361E+03  1.187E+00  1.315E+01  7.890E-02  1.396E+00
   1    3    4     1     4    2.5280E+01  3.0378E-01   2.4976E+01  0.000E+00  0.000E+00  0.000E+00  1.07859E+03  1.182E+00  1.309E+01  7.264E-02  1.394E+00
   1    4    5     2     1    2.2976E+01  3.2316E-01   2.2653E+01  0.000E+00  0.000E+00  0.000E+00  1.07308E+03  1.143E+00  1.200E+01  7.800E-02  1.381E+00
   1    5    6     2     2    2.2653E+01  2.4807E-01   2.2405E+01  0.000E+00  0.000E+00  0.000E+00  1.06764E+03  1.134E+00  1.200E+01  6.000E-02  1.378E+00
   1    6    6     2     3    2.2405E+01  2.4762E-01   2.2157E+01  0.000E+00  0.000E+00  0.000E+00  1.06292E+03  1.127E+00  1.200E+01  6.000E-02  1.376E+00
   1    7    6     2     4    2.2157E+01  2.4717E-01   2.1910E+01  0.000E+00  0.000E+00  0.000E+00  1.05819E+03  1.119E+00  1.200E+01  6.000E-02  1.373E+00
   1    8    6     2     5    2.1910E+01  2.4671E-01   2.1664E+01  0.000E+00  0.000E+00  0.000E+00  1.05347E+03  1.112E+00  1.200E+01  6.000E-02  1.371E+00
   1    3    5     3     1    2.0000E+00  2.8252E-01   1.7175E+00  0.000E+00  0.000E+00  0.000E+00  1.07555E+03  1.909E+00  9.636E+00  7.227E-02  1.955E+00
   1    3    6     3     2    1.7175E+00  2.4905E-01   1.4684E+00  0.000E+00  0.000E+00  0.000E+00  1.07264E+03  1.727E+00  8.909E+00  6.682E-02  1.864E+00
   1    3    7     3     3    1.4684E+00  1.9718E-01   1.2712E+00  0.000E+00  0.000E+00  0.000E+00  1.06987E+03  1.555E+00  8.218E+00  5.547E-02  1.777E+00
   1    4    8     3     4    1.2712E+00  2.2567E-01   1.0456E+00  0.000E+00  0.000E+00  0.000E+00  1.06682E+03  1.364E+00  7.455E+00  6.709E-02  1.682E+00
   1    5    8     3     5    1.0456E+00  1.5790E-01   8.8768E-01  0.000E+00  0.000E+00  0.000E+00  1.06362E+03  1.164E+00  6.655E+00  4.991E-02  1.582E+00
   1    6    8     3     6    8.8768E-01  5.5980E-02   8.3170E-01  0.000E+00  0.000E+00  0.000E+00  1.06158E+03  1.036E+00  6.145E+00  1.844E-02  1.518E+00
   1    5   10     4     1    1.0000E+01  9.0919E-02   9.9091E+00  0.000E+00  0.000E+00  0.000E+00  1.07836E+03  6.368E-01  1.000E+01  2.500E-02  1.212E+00
   1    5    9     4     2    9.9091E+00  1.8158E-01   9.7275E+00  0.000E+00  0.000E+00  0.000E+00  1.07154E+03  6.315E-01  1.000E+01  5.000E-02  1.211E+00
   1    6    8     4     3    9.7275E+00  1.2689E-01   9.6006E+00  0.000E+00  0.000E+00  0.000E+00  1.06381E+03  6.256E-01  1.000E+01  3.500E-02  1.209E+00
   1    6    8     5     1    1.0432E+01  2.2686E-01   1.0205E+01  0.000E+00  0.000E+00  0.000E+00  1.05868E+03  6.790E-01  1.542E+01  6.166E-02  1.226E+00
   1    7    7     5     2    1.0205E+01  2.7894E-01   9.9265E+00  0.000E+00  0.000E+00  0.000E+00  1.05417E+03  6.732E-01  1.519E+01  7.594E-02  1.224E+00
   1    8    7     5     3    9.9265E+00  1.9221E-01   9.7343E+00  0.000E+00  0.000E+00  0.000E+00  1.04992E+03  6.676E-01  1.497E+01  5.241E-02  1.223E+00
   1    8    6     5     4    9.7343E+00  1.3577E-01   9.5985E+00  0.000E+00  0.000E+00  0.000E+00  1.04691E+03  6.637E-01  1.482E+01  3.706E-02  1.221E+00
   1    9    6     6     1    3.1262E+01  2.6357E-01   3.0999E+01  0.000E+00  0.000E+00  0.000E+00  1.04412E+03  1.393E+00  1.200E+01  6.000E-02  1.464E+00
   1   10    7     6     2    3.0999E+01  2.6314E-01   3.0735E+01  0.000E+00  0.000E+00  0.000E+00  1.03957E+03  1.386E+00  1.200E+01  6.000E-02  1.462E+00
   1   11    7     6     3    3.0735E+01  2.6272E-01   3.0473E+01  0.000E+00  0.000E+00  0.000E+00  1.03501E+03  1.379E+00  1.200E+01  6.000E-02  1.460E+00
   1   12    7     6     4    3.0473E+01  2.6229E-01   3.0210E+01  0.000E+00  0.000E+00  0.000E+00  1.03046E+03  1.371E+00  1.200E+01  6.000E-02  1.457E+00
   1   13    7     6     5    3.0210E+01  7.7448E-03   3.0203E+01  0.000E+00  0.000E+00  0.000E+00  1.02728E+03  1.368E+00  1.200E+01  2.400E-02  1.076E-01
   1   14    9     7     1    1.5000E+02  1.3473E+00   1.4865E+02  0.000E+00  0.000E+00  0.000E+00  1.03987E+03  2.288E+00  5.529E+01  5.593E-01  8.030E-01
   1   13    8     7     2    1.4865E+02  1.8734E+00   1.4678E+02  0.000E+00  0.000E+00  0.000E+00  1.03478E+03  2.279E+00  5.526E+01  6.148E-01  1.016E+00
   1   13    7     7     3    1.4678E+02  1.5274E+00   1.4525E+02  0.000E+00  0.000E+00  0.000E+00  1.02969E+03  2.270E+00  5.522E+01  5.584E-01  9.117E-01
   1   13    6     8     1    1.7545E+02  9.9635E-01   1.7446E+02  0.000E+00  0.000E+00  0.000E+00  1.02486E+03  2.984E+00  4.327E+01  4.409E-01  7.532E-01
   1   13    5     8     2    1.7446E+02  2.3215E-01   1.7423E+02  0.000E+00  0.000E+00  0.000E+00  1.01861E+03  2.980E+00  4.321E+01  4.404E-01  1.757E-01
   1   13    4     8     3    1.7423E+02 -2.2625E+00   1.7649E+02  0.000E+00  0.000E+00  0.000E+00  1.01236E+03  2.987E+00  4.331E+01  4.413E+00 -1.709E-01
   1   13    3     8     4    1.7649E+02 -3.5532E+00   1.8004E+02  0.000E+00  0.000E+00  0.000E+00  1.00613E+03  3.005E+00  4.358E+01  4.441E+00 -2.667E-01
   1   13    2     8     5    1.8004E+02 -2.5297E+00   1.8257E+02  0.000E+00  0.000E+00  0.000E+00  9.99899E+02  3.024E+00  4.385E+01  4.469E+00 -1.887E-01
   1   13    1     8     6    1.8257E+02 -1.9547E+00   1.8453E+02  0.000E+00  0.000E+00  0.000E+00  9.94913E+02  3.038E+00  4.406E+01  2.694E+00 -2.419E-01
   1    8    6     9     1    1.0936E-05  0.0000E+00   1.0936E-05  0.000E+00  0.000E+00  0.000E+00  1.07875E+03  6.006E-04  4.000E+00  0.000E+00  1.000E+00
   1    8    5     9     2    1.0936E-05  0.0000E+00   1.0936E-05  0.000E+00  0.000E+00  0.000E+00  1.07825E+03  6.006E-04  4.000E+00  0.000E+00  1.000E+00





UNSATURATED ZONE PACKAGE VOLUMETRIC BUDGET FOR  TIME STEP    30 STRESS PERIOD   35
  ------------------------------------------------------------------------------



     CUMULATIVE VOLUMES      L**3       RATES FOR THIS TIME STEP      L**3/T
     ------------------                 ------------------------

           IN:                                      IN:
           ---                                      ---
        INFILTRATION =  1542224112.3701          INFILTRATION =           0.8475

          OUT:                                     OUT:
          ----                                     ----
              UZF ET =  1280179712.3630                UZF ET =           1.5675
        UZF RECHARGE =    69419251.8807          UZF RECHARGE =          32.6325

            IN - OUT =   192625148.1264              IN - OUT =         -33.3525

          STORAGE:                                 STORAGE:
          --------                                 --------
      STORAGE CHANGE =   192626306.4588        STORAGE CHANGE =         -33.3525

 PERCENT DISCREPANCY IS DIFFERENCE BETWEEN IN-OUT MINUS CHANGE IN STORAGE
 DIVIDED BY THE AVERAGE OF IN AND OUT TIMES 100

 PERCENT DISCREPANCY =          -0.00     PERCENT DISCREPANCY =           0.00






1
  VOLUMETRIC BUDGET FOR AGRICULTURAL FIELDS AT  END OF TIME STEP   30, STRESS PERIOD  35
  ------------------------------------------------------------------------------

     CUMULATIVE VOLUMES      L**3       RATES FOR THIS TIME STEP      L**3/T
     ------------------                 ------------------------

           IN:                                      IN:
           ---                                      ---
               AG WELLS  =   541941056.0000                 AG WELLS  =           0.0000
      DIVERSION SEGMENTS =   924417408.0000        DIVERSION SEGMENTS =       1.0936E-05
           GW IRRIGATION =           0.0000             GW IRRIGATION =           0.0000
           SW IRRIGATION =           0.0000             SW IRRIGATION =           0.0000
        SYSTEM LOSSES GW =           0.0000          SYSTEM LOSSES GW =           0.0000
        SYSTEM LOSSES SW =           0.0000          SYSTEM LOSSES SW =           0.0000

                TOTAL IN =  1466358528.0000                  TOTAL IN =       1.0936E-05

          OUT:                                     OUT:
          ----                                     ----
               AG WELLS  =           0.0000                 AG WELLS  =           0.0000
      DIVERSION SEGMENTS =           0.0000        DIVERSION SEGMENTS =           0.0000
           GW IRRIGATION =   541941056.0000             GW IRRIGATION =           0.0000
           SW IRRIGATION =   924435904.0000             SW IRRIGATION =       1.0937E-05
        SYSTEM LOSSES GW =           0.0000          SYSTEM LOSSES GW =           0.0000
        SYSTEM LOSSES SW =           0.0000          SYSTEM LOSSES SW =           0.0000

               TOTAL OUT =  1466376960.0000                 TOTAL OUT =       1.0937E-05

                IN - OUT =      -18432.0000                  IN - OUT =      -2.1828E-10

     PERCENT DISCREPANCY =          -0.00         PERCENT DISCREPANCY =          -0.00



1
  VOLUMETRIC BUDGET FOR ENTIRE MODEL AT END OF TIME STEP   30, STRESS PERIOD  35
  ------------------------------------------------------------------------------

     CUMULATIVE VOLUMES      L**3       RATES FOR THIS TIME STEP      L**3/T
     ------------------                 ------------------------

           IN:                                      IN:
           ---                                      ---
             STORAGE     =   874302208.0000               STORAGE     =           5.9924
       CONSTANT HEAD     =           0.0000         CONSTANT HEAD     =           0.0000
     HEAD DEP BOUNDS     =    25593224.0000       HEAD DEP BOUNDS     =           0.2865
      STREAM LEAKAGE     =  1077821568.0000        STREAM LEAKAGE     =          12.0232
        UZF RECHARGE     =    69419248.0000          UZF RECHARGE     =          32.6325
               GW ET     =           0.0000                 GW ET     =           0.0000
     SURFACE LEAKAGE     =           0.0000       SURFACE LEAKAGE     =           0.0000
           AG WELLS      =           0.0000             AG WELLS      =           0.0000

                TOTAL IN =  2047136256.0000                  TOTAL IN =          50.9346

          OUT:                                     OUT:
          ----                                     ----
             STORAGE     =   520639200.0000               STORAGE     =          40.3428
       CONSTANT HEAD     =           0.0000         CONSTANT HEAD     =           0.0000
     HEAD DEP BOUNDS     =    26024556.0000       HEAD DEP BOUNDS     =           0.2903
      STREAM LEAKAGE     =   955866944.0000        STREAM LEAKAGE     =          10.3001
        UZF RECHARGE     =           0.0000          UZF RECHARGE     =           0.0000
               GW ET     =     2673563.7500                 GW ET     =           0.0000
     SURFACE LEAKAGE     =           0.0000       SURFACE LEAKAGE     =           0.0000
           AG WELLS      =   541941056.0000             AG WELLS      =           0.0000

               TOTAL OUT =  2047145216.0000                 TOTAL OUT =          50.9331

                IN - OUT =       -8960.0000                  IN - OUT =       1.4915E-03

     PERCENT DISCREPANCY =          -0.00         PERCENT DISCREPANCY =           0.00






         TIME SUMMARY AT END OF TIME STEP   30 IN STRESS PERIOD   35
                    SECONDS     MINUTES      HOURS       DAYS        YEARS
                    -----------------------------------------------------------
   TIME STEP LENGTH  87667.      1461.1      24.352      1.0147     2.77799E-03
 STRESS PERIOD TIME 2.63000E+06  43833.      730.56      30.440     8.33397E-02
         TOTAL TIME 8.95061E+07 1.49177E+06  24863.      1036.0      2.8363    
1
1
                            STRESS PERIOD NO.   36, LENGTH =   2630000.    
                            -----------------------------------------------

                              NUMBER OF TIME STEPS =    30

                               MULTIPLIER FOR DELT =     1.000

                            INITIAL TIME STEP SIZE =   87666.66    

 REUSING NON-PARAMETER GHB CELLS FROM LAST STRESS PERIOD

      2 GHB CELLS

 REUSING STREAM SEGMENT DATA FROM LAST STRESS PERIOD



            AREAL INFILTRATION RATE
 READING ON UNIT   19 WITH FORMAT: (FREE)              

            1           2           3           4           5           6           7           8           9          10
 ........................................................................................................................
   1   1.0000E-10  2.0000E-10   0.000       0.000       0.000       0.000       0.000       0.000       0.000       0.000    
   2   2.0000E-10  1.0000E-10  2.0000E-10   0.000       0.000      8.0000E-10  8.0000E-10  5.0000E-10   0.000       0.000    
   3    0.000      5.0000E-10  1.0000E-10  1.0000E-10  8.0000E-10  8.0000E-10  5.0000E-10  5.0000E-10   0.000       0.000    
   4   8.0000E-10  5.0000E-10  1.0000E-10  1.0000E-10  1.0000E-10  1.0000E-10  1.0000E-10  1.0000E-10  2.0000E-10   0.000    
   5   8.0000E-10  5.0000E-10  1.0000E-10  1.0000E-10  1.0000E-10  1.0000E-10  1.0000E-10  1.0000E-10  1.0000E-10  1.0000E-10
   6   8.0000E-10  5.0000E-10  5.0000E-10  2.0000E-10  2.0000E-10  1.0000E-10  1.0000E-10  1.0000E-10  1.0000E-10  5.0000E-10
   7   8.0000E-10  5.0000E-10  5.0000E-10  2.0000E-10  2.0000E-10  1.0000E-10  1.0000E-10  2.0000E-10  2.0000E-10   0.000    
   8    0.000      5.0000E-10  5.0000E-10  2.0000E-10  2.0000E-10  1.0000E-10  1.0000E-10  2.0000E-10  5.0000E-10   0.000    
   9    0.000      5.0000E-10  5.0000E-10  2.0000E-10  2.0000E-10  1.0000E-10  1.0000E-10  2.0000E-10  5.0000E-10   0.000    
  10    0.000      5.0000E-10  5.0000E-10  2.0000E-10  2.0000E-10  1.0000E-10  1.0000E-10  2.0000E-10  5.0000E-10  8.0000E-10
  11    0.000      1.0000E-10  1.0000E-10  1.0000E-10  1.0000E-10  1.0000E-10  1.0000E-10  2.0000E-10  5.0000E-10   0.000    
  12   1.0000E-10  1.0000E-10  1.0000E-10  1.0000E-10  1.0000E-10  1.0000E-10  1.0000E-10  1.0000E-10  2.0000E-10   0.000    
  13   1.0000E-10  1.0000E-10  2.0000E-10  2.0000E-10  2.0000E-10  2.0000E-10  2.0000E-10  1.0000E-10  1.0000E-10   0.000    
  14    0.000      2.0000E-10  5.0000E-10  5.0000E-10  5.0000E-10  5.0000E-10  5.0000E-10  2.0000E-10  1.0000E-10   0.000    
  15    0.000       0.000      8.0000E-10  8.0000E-10  8.0000E-10  8.0000E-10   0.000       0.000       0.000       0.000    

                  ET RATE =  5.000000E-10

 USING ET EXTINCTION DEPTH FROM PREVIOUS STRESS PERIOD. CURRENT PERIOD IS:      36

 USING EXTINCTION WATER CONTENT FROM PREVIOUS STRESS PERIOD. CURRENT PERIOD IS:      36

 USING AIR ENTRY PRESSURE FROM PREVIOUS STRESS PERIOD. CURRENT PERIOD IS:      36

 USING ROOT PRESSURE HEAD FROM PREVIOUS STRESS PERIOD. CURRENT PERIOD IS:      36

 USING ROOT ACTIVITY FROM PREVIOUS STRESS PERIOD. CURRENT PERIOD IS:      36

 PROCESSING AG STRESS PERIOD DATA

 READING AG STRESS PERIOD DATA

 READING IRRIGATION SEGMENT

 READING IRRIGATION WELL

 READING SUPPLEMENTAL WELL

 END PROCESSING AG STRESS PERIOD DATA OPTIONS
 
 SOLVING FOR HEAD 
                                                   Max.-Head-Change                         Max.-Flux-Residual
  Residual-Control   Outer-Iter.   Inner-Iter.     Column Row Layer    Maximum-Head-Change  Column Row Layer    Maximum-Flux-Residual          L2-NORM 
          0                 1           2             4    7     1       0.1466108377E+00       4    7    1         0.7977296788E+01      0.1017477984E+02
          0                 2           2             4    7     1       0.2188736692E-01       4    7    1         0.1195677068E+01      0.1322886098E+01
          0                 3           2             4    7     1       0.7446476298E-03       4    7    1         0.4037111763E-01      0.5625225390E-01
          0                 4           1             4    7     1       0.2533576948E-04       4    7    1         0.1388086064E-02      0.2111316356E-02

    ------------------------------------------------
       NWT REQUIRED            4 OUTER ITERATIONS 
       AND A TOTAL OF          7 INNER ITERATIONS.
    ------------------------------------------------

 NO OUTPUT CONTROL FOR STRESS PERIOD   36   TIME STEP    1
 
 SOLVING FOR HEAD 
                                                   Max.-Head-Change                         Max.-Flux-Residual
  Residual-Control   Outer-Iter.   Inner-Iter.     Column Row Layer    Maximum-Head-Change  Column Row Layer    Maximum-Flux-Residual          L2-NORM 
          0                 1           2             5    6     1      -0.8164351559E-01       5    6    1        -0.4622265739E+01      0.7573291848E+01
          0                 2           2             5    6     1       0.7931642615E-02       5    6    1         0.4616405095E+00      0.7567497117E+00
          0                 3           2             5    6     1      -0.5401255555E-03       5    6    1        -0.3231554108E-01      0.5297177685E-01
          0                 4           1             5    6     1       0.2149204968E-04       5    6    1         0.1321704273E-02      0.2166466149E-02

    ------------------------------------------------
       NWT REQUIRED            4 OUTER ITERATIONS 
       AND A TOTAL OF          7 INNER ITERATIONS.
    ------------------------------------------------

 NO OUTPUT CONTROL FOR STRESS PERIOD   36   TIME STEP    2
 
 SOLVING FOR HEAD 
                                                   Max.-Head-Change                         Max.-Flux-Residual
  Residual-Control   Outer-Iter.   Inner-Iter.     Column Row Layer    Maximum-Head-Change  Column Row Layer    Maximum-Flux-Residual          L2-NORM 
          0                 1           2             4    6     1       0.1056597193E+00       4    6    1         0.5855031706E+01      0.8385784500E+01
          0                 2           2             4    6     1       0.4231290385E-01       4    6    1         0.2299558258E+01      0.2376752920E+01
          0                 3           2             4    6     1       0.1691614994E-01       4    6    1         0.9240269528E+00      0.9249389967E+00
          0                 4           2             4    6     1       0.6769511919E-02       4    6    1         0.3694866403E+00      0.3694967641E+00
          0                 5           2             4    6     1       0.2709026201E-02       4    6    1         0.1478670989E+00      0.1478688584E+00
          0                 6           2             4    6     1       0.1084099322E-02       4    6    1         0.5917349349E-01      0.5917420961E-01
          0                 7           2             4    6     1       0.4338353608E-03       4    6    1         0.2368007587E-01      0.2368036239E-01
          0                 8           2             4    6     1       0.1736124335E-03       4    6    1         0.9476304024E-02      0.9476418651E-02
          0                 9           1             4    6     1       0.6947630332E-04       4    6    1         0.3792231790E-02      0.3792277690E-02

    ------------------------------------------------
       NWT REQUIRED            9 OUTER ITERATIONS 
       AND A TOTAL OF         17 INNER ITERATIONS.
    ------------------------------------------------

 NO OUTPUT CONTROL FOR STRESS PERIOD   36   TIME STEP    3
 
 SOLVING FOR HEAD 
                                                   Max.-Head-Change                         Max.-Flux-Residual
  Residual-Control   Outer-Iter.   Inner-Iter.     Column Row Layer    Maximum-Head-Change  Column Row Layer    Maximum-Flux-Residual          L2-NORM 
          0                 1           2             4    6     1       0.2407668737E+00       4    6    1         0.1322077190E+02      0.1432420063E+02
          0                 2           2             4    6     1       0.9634964137E-01       4    6    1         0.5252035876E+01      0.5280883187E+01
          0                 3           2             4    6     1       0.3855669652E-01       4    6    1         0.2105262022E+01      0.2105577809E+01
          0                 4           2             4    6     1       0.1542943737E-01       4    6    1         0.8422158156E+00      0.8422238201E+00
          0                 5           2             4    6     1       0.6174480737E-02       4    6    1         0.3370527517E+00      0.3370535183E+00
          0                 6           2             4    6     1       0.2470875327E-02       4    6    1         0.1348789547E+00      0.1348793356E+00
          0                 7           2             4    6     1       0.9887835700E-03       4    6    1         0.5397533679E-01      0.5397548271E-01
          0                 8           2             4    6     1       0.3956868860E-03       4    6    1         0.2159959845E-01      0.2159965721E-01
          0                 9           2             4    6     1       0.1583441688E-03       4    6    1         0.8643629198E-02      0.8643652772E-02
          0                10           1             4    6     1       0.6336544574E-04       4    6    1         0.3458968073E-02      0.3459001470E-02

    ------------------------------------------------
       NWT REQUIRED           10 OUTER ITERATIONS 
       AND A TOTAL OF         19 INNER ITERATIONS.
    ------------------------------------------------

 NO OUTPUT CONTROL FOR STRESS PERIOD   36   TIME STEP    4
 
 SOLVING FOR HEAD 
                                                   Max.-Head-Change                         Max.-Flux-Residual
  Residual-Control   Outer-Iter.   Inner-Iter.     Column Row Layer    Maximum-Head-Change  Column Row Layer    Maximum-Flux-Residual          L2-NORM 
          0                 1           2             4    6     1       0.2184561113E+00       4    6    1         0.1198198642E+02      0.1294861738E+02
          0                 2           2             4    6     1       0.8742028322E-01       4    6    1         0.4766714568E+01      0.4791919317E+01
          0                 3           2             4    6     1       0.3498299284E-01       4    6    1         0.1910052414E+01      0.1910334138E+01
          0                 4           2             4    6     1       0.1399909141E-01       4    6    1         0.7641485299E+00      0.7641551439E+00
          0                 5           2             4    6     1       0.5601998591E-02       4    6    1         0.3058038850E+00      0.3058046624E+00
          0                 6           2             4    6     1       0.2241745185E-02       4    6    1         0.1223721391E+00      0.1223725072E+00
          0                 7           2             4    6     1       0.8970766188E-03       4    6    1         0.4896961144E-01      0.4896975358E-01
          0                 8           2             4    6     1       0.3589821432E-03       4    6    1         0.1959611079E-01      0.1959616801E-01
          0                 9           2             4    6     1       0.1436534830E-03       4    6    1         0.7841754580E-02      0.7841777457E-02
          0                10           1             4    6     1       0.5748565451E-04       4    6    1         0.3138026266E-02      0.3138035462E-02

    ------------------------------------------------
       NWT REQUIRED           10 OUTER ITERATIONS 
       AND A TOTAL OF         19 INNER ITERATIONS.
    ------------------------------------------------

 NO OUTPUT CONTROL FOR STRESS PERIOD   36   TIME STEP    5
 
 SOLVING FOR HEAD 
                                                   Max.-Head-Change                         Max.-Flux-Residual
  Residual-Control   Outer-Iter.   Inner-Iter.     Column Row Layer    Maximum-Head-Change  Column Row Layer    Maximum-Flux-Residual          L2-NORM 
          0                 1           2             4    6     1       0.1984483940E+00       4    6    1         0.1087161110E+02      0.1173990575E+02
          0                 2           2             4    6     1       0.7940945722E-01       4    6    1         0.4331340257E+01      0.4353943740E+01
          0                 3           2             4    6     1       0.3177588588E-01       4    6    1         0.1734909498E+01      0.1735168421E+01
          0                 4           2             4    6     1       0.1271515286E-01       4    6    1         0.6940922816E+00      0.6940976177E+00
          0                 5           2             4    6     1       0.5087985693E-02       4    6    1         0.2777539254E+00      0.2777546524E+00
          0                 6           2             4    6     1       0.2035965119E-02       4    6    1         0.1111428767E+00      0.1111432100E+00
          0                 7           2             4    6     1       0.8146946172E-03       4    6    1         0.4447407486E-01      0.4447420421E-01
          0                 8           2             4    6     1       0.3260013403E-03       4    6    1         0.1779636952E-01      0.1779642155E-01
          0                 9           2             4    6     1       0.1304499552E-03       4    6    1         0.7121246414E-02      0.7121267252E-02
          0                10           1             4    6     1       0.5219975770E-04       4    6    1         0.2849578202E-02      0.2849586589E-02

    ------------------------------------------------
       NWT REQUIRED           10 OUTER ITERATIONS 
       AND A TOTAL OF         19 INNER ITERATIONS.
    ------------------------------------------------

 NO OUTPUT CONTROL FOR STRESS PERIOD   36   TIME STEP    6
 
 SOLVING FOR HEAD 
                                                   Max.-Head-Change                         Max.-Flux-Residual
  Residual-Control   Outer-Iter.   Inner-Iter.     Column Row Layer    Maximum-Head-Change  Column Row Layer    Maximum-Flux-Residual          L2-NORM 
          0                 1           2             4    6     1       0.1804896872E+00       4    6    1         0.9875620627E+01      0.1067909499E+02
          0                 2           2             4    6     1       0.7221884229E-01       4    6    1         0.3940551645E+01      0.3961447965E+01
          0                 3           2             4    6     1       0.2889673084E-01       4    6    1         0.1577697806E+01      0.1577943924E+01
          0                 4           2             4    6     1       0.1156239941E-01       4    6    1         0.6311997859E+00      0.6312040517E+00
          0                 5           2             4    6     1       0.4626446710E-02       4    6    1         0.2525696634E+00      0.2525703454E+00
          0                 6           2             4    6     1       0.1851174257E-02       4    6    1         0.1010598029E+00      0.1010601052E+00
          0                 7           2             4    6     1       0.7407081057E-03       4    6    1         0.4043699857E-01      0.4043711649E-01
          0                 8           2             4    6     1       0.2963786498E-03       4    6    1         0.1618000656E-01      0.1618005394E-01
          0                 9           2             4    6     1       0.1185896372E-03       4    6    1         0.6474087502E-02      0.6474106433E-02
          0                10           1             4    6     1       0.4745113117E-04       4    6    1         0.2590469051E-02      0.2590476623E-02

    ------------------------------------------------
       NWT REQUIRED           10 OUTER ITERATIONS 
       AND A TOTAL OF         19 INNER ITERATIONS.
    ------------------------------------------------

 NO OUTPUT CONTROL FOR STRESS PERIOD   36   TIME STEP    7
 
 SOLVING FOR HEAD 
                                                   Max.-Head-Change                         Max.-Flux-Residual
  Residual-Control   Outer-Iter.   Inner-Iter.     Column Row Layer    Maximum-Head-Change  Column Row Layer    Maximum-Flux-Residual          L2-NORM 
          0                 1           2             4    6     1       0.1643608516E+00       4    6    1         0.8981572388E+01      0.9749373651E+01
          0                 2           2             4    6     1       0.6587129608E-01       4    6    1         0.3590029025E+01      0.3609978658E+01
          0                 3           2             4    6     1       0.2640862087E-01       4    6    1         0.1439490369E+01      0.1439732745E+01
          0                 4           2             4    6     1       0.1058757067E-01       4    6    1         0.5770843603E+00      0.5770875961E+00
          0                 5           2             4    6     1       0.4244703585E-02       4    6    1         0.2313662788E+00      0.2313669067E+00
          0                 6           2             4    6     1       0.1701761095E-02       4    6    1         0.9275764752E-01      0.9275791428E-01
          0                 7           2             4    6     1       0.6822599606E-03       4    6    1         0.3718789467E-01      0.3718799966E-01
          0                 8           2             4    6     1       0.2735276330E-03       4    6    1         0.1490915107E-01      0.1490919329E-01
          0                 9           1             4    6     1       0.1096610857E-03       4    6    1         0.5977289580E-02      0.5977306493E-02
          0                10           1             4    6     1       0.4396467627E-04       4    6    1         0.2396379803E-02      0.2396386596E-02

    ------------------------------------------------
       NWT REQUIRED           10 OUTER ITERATIONS 
       AND A TOTAL OF         18 INNER ITERATIONS.
    ------------------------------------------------

 NO OUTPUT CONTROL FOR STRESS PERIOD   36   TIME STEP    8
 
 SOLVING FOR HEAD 
                                                   Max.-Head-Change                         Max.-Flux-Residual
  Residual-Control   Outer-Iter.   Inner-Iter.     Column Row Layer    Maximum-Head-Change  Column Row Layer    Maximum-Flux-Residual          L2-NORM 
          0                 1           2             4    6     1       0.1477563786E+00       4    6    1         0.8048229292E+01      0.8818290006E+01
          0                 2           2             4    6     1       0.5022361347E-02       4    6    1         0.2743747114E+00      0.4529427157E+00
          0                 3           2             4    5     1       0.2390997981E-03       4    5    1         0.1352019053E-01      0.2687815983E-01
          0                 4           1             4    5     1      -0.9213368742E-05       4    5    1        -0.5451438437E-03      0.1079469281E-02

    ------------------------------------------------
       NWT REQUIRED            4 OUTER ITERATIONS 
       AND A TOTAL OF          7 INNER ITERATIONS.
    ------------------------------------------------

 NO OUTPUT CONTROL FOR STRESS PERIOD   36   TIME STEP    9
 
 SOLVING FOR HEAD 
                                                   Max.-Head-Change                         Max.-Flux-Residual
  Residual-Control   Outer-Iter.   Inner-Iter.     Column Row Layer    Maximum-Head-Change  Column Row Layer    Maximum-Flux-Residual          L2-NORM 
          0                 1           2             4    6     1      -0.4274614108E-01       4    6    1        -0.2342226082E+01      0.4181962978E+01
          0                 2           2             4    6     1       0.4148682025E-02       4    6    1         0.2336959222E+00      0.4178866000E+00
          0                 3           2             4    6     1      -0.2825118208E-03       4    6    1        -0.1635885222E-01      0.2925127418E-01
          0                 4           1             4    6     1       0.1124139784E-04       4    6    1         0.6690773873E-03      0.1196337784E-02

    ------------------------------------------------
       NWT REQUIRED            4 OUTER ITERATIONS 
       AND A TOTAL OF          7 INNER ITERATIONS.
    ------------------------------------------------

 NO OUTPUT CONTROL FOR STRESS PERIOD   36   TIME STEP   10
 
 SOLVING FOR HEAD 
                                                   Max.-Head-Change                         Max.-Flux-Residual
  Residual-Control   Outer-Iter.   Inner-Iter.     Column Row Layer    Maximum-Head-Change  Column Row Layer    Maximum-Flux-Residual          L2-NORM 
          0                 1           2             4    6     1      -0.4055817039E-01       4    6    1        -0.2221573206E+01      0.3991173778E+01
          0                 2           2             4    6     1       0.3945024351E-02       4    6    1         0.2221449195E+00      0.3990969977E+00
          0                 3           2             4    6     1      -0.2686432895E-03       4    6    1        -0.1555026840E-01      0.2793605197E-01
          0                 4           1             4    6     1       0.1068955717E-04       4    6    1         0.6360063101E-03      0.1142477875E-02

    ------------------------------------------------
       NWT REQUIRED            4 OUTER ITERATIONS 
       AND A TOTAL OF          7 INNER ITERATIONS.
    ------------------------------------------------

 NO OUTPUT CONTROL FOR STRESS PERIOD   36   TIME STEP   11
 
 SOLVING FOR HEAD 
                                                   Max.-Head-Change                         Max.-Flux-Residual
  Residual-Control   Outer-Iter.   Inner-Iter.     Column Row Layer    Maximum-Head-Change  Column Row Layer    Maximum-Flux-Residual          L2-NORM 
          0                 1           2             4    6     1      -0.3848679054E-01       4    6    1        -0.2107401810E+01      0.3811679992E+01
          0                 2           2             4    6     1       0.3743554423E-02       4    6    1         0.2107290834E+00      0.3811496054E+00
          0                 3           2             4    6     1      -0.2549237505E-03       4    6    1        -0.1475114721E-01      0.2667979539E-01
          0                 4           1             4    6     1       0.1014364511E-04       4    6    1         0.6033222896E-03      0.1091162075E-02

    ------------------------------------------------
       NWT REQUIRED            4 OUTER ITERATIONS 
       AND A TOTAL OF          7 INNER ITERATIONS.
    ------------------------------------------------

 NO OUTPUT CONTROL FOR STRESS PERIOD   36   TIME STEP   12
 
 SOLVING FOR HEAD 
                                                   Max.-Head-Change                         Max.-Flux-Residual
  Residual-Control   Outer-Iter.   Inner-Iter.     Column Row Layer    Maximum-Head-Change  Column Row Layer    Maximum-Flux-Residual          L2-NORM 
          0                 1           2             4    6     1      -0.3653343026E-01       4    6    1        -0.1999778361E+01      0.3642963037E+01
          0                 2           2             4    6     1       0.3553493631E-02       4    6    1         0.1999678976E+00      0.3641846264E+00
          0                 3           2             4    6     1      -0.2419811475E-03       4    6    1        -0.1399785294E-01      0.2549228437E-01
          0                 4           1             4    6     1       0.9628646891E-05       4    6    1         0.5725125411E-03      0.1042551211E-02

    ------------------------------------------------
       NWT REQUIRED            4 OUTER ITERATIONS 
       AND A TOTAL OF          7 INNER ITERATIONS.
    ------------------------------------------------

 NO OUTPUT CONTROL FOR STRESS PERIOD   36   TIME STEP   13
 
 SOLVING FOR HEAD 
                                                   Max.-Head-Change                         Max.-Flux-Residual
  Residual-Control   Outer-Iter.   Inner-Iter.     Column Row Layer    Maximum-Head-Change  Column Row Layer    Maximum-Flux-Residual          L2-NORM 
          0                 1           2             4    6     1      -0.3469123488E-01       4    6    1        -0.1898277982E+01      0.3484247538E+01
          0                 2           2             4    6     1       0.3374382480E-02       4    6    1         0.1898188947E+00      0.3484108737E+00
          0                 3           2             4    6     1      -0.2297841954E-03       4    6    1        -0.1328741261E-01      0.2438817018E-01
          0                 4           1             4    6     1       0.9143319815E-05       4    6    1         0.5434555317E-03      0.9974199324E-03

    ------------------------------------------------
       NWT REQUIRED            4 OUTER ITERATIONS 
       AND A TOTAL OF          7 INNER ITERATIONS.
    ------------------------------------------------

 NO OUTPUT CONTROL FOR STRESS PERIOD   36   TIME STEP   14
 
 SOLVING FOR HEAD 
                                                   Max.-Head-Change                         Max.-Flux-Residual
  Residual-Control   Outer-Iter.   Inner-Iter.     Column Row Layer    Maximum-Head-Change  Column Row Layer    Maximum-Flux-Residual          L2-NORM 
          0                 1           2             4    6     1      -0.3295296761E-01       4    6    1        -0.1802549037E+01      0.3335792485E+01
          0                 2           2             4    6     1       0.3205309766E-02       4    6    1         0.1802469212E+00      0.3335667730E+00
          0                 3           2             4    6     1      -0.2182708409E-03       4    6    1        -0.1261736547E-01      0.2334916528E-01
          0                 4           1             4    6     1       0.8685193475E-05       4    6    1         0.5160506171E-03      0.9549385293E-03

    ------------------------------------------------
       NWT REQUIRED            4 OUTER ITERATIONS 
       AND A TOTAL OF          7 INNER ITERATIONS.
    ------------------------------------------------

 NO OUTPUT CONTROL FOR STRESS PERIOD   36   TIME STEP   15
 
 SOLVING FOR HEAD 
                                                   Max.-Head-Change                         Max.-Flux-Residual
  Residual-Control   Outer-Iter.   Inner-Iter.     Column Row Layer    Maximum-Head-Change  Column Row Layer    Maximum-Flux-Residual          L2-NORM 
          0                 1           2             4    6     1      -0.3131245907E-01       4    6    1        -0.1712242174E+01      0.3195971419E+01
          0                 2           2             4    6     1       0.3045744858E-02       4    6    1         0.1712170550E+00      0.3195858743E+00
          0                 3           2             4    6     1      -0.2074049461E-03       4    6    1        -0.1198526681E-01      0.2237055980E-01
          0                 4           1             4    6     1       0.8252829930E-05       4    6    1         0.4901977748E-03      0.9149136126E-03

    ------------------------------------------------
       NWT REQUIRED            4 OUTER ITERATIONS 
       AND A TOTAL OF          7 INNER ITERATIONS.
    ------------------------------------------------

 NO OUTPUT CONTROL FOR STRESS PERIOD   36   TIME STEP   16
 
 SOLVING FOR HEAD 
                                                   Max.-Head-Change                         Max.-Flux-Residual
  Residual-Control   Outer-Iter.   Inner-Iter.     Column Row Layer    Maximum-Head-Change  Column Row Layer    Maximum-Flux-Residual          L2-NORM 
          0                 1           2             4    6     1      -0.2976309666E-01       4    6    1        -0.1626989322E+01      0.3064152551E+01
          0                 2           2             4    6     1       0.2895044701E-02       4    6    1         0.1626925012E+00      0.3064050634E+00
          0                 3           2             4    6     1      -0.1971427209E-03       4    6    1        -0.1138854085E-01      0.2144790193E-01
          0                 4           1             4    6     1       0.7844487529E-05       4    6    1         0.4657916877E-03      0.8771798010E-03

    ------------------------------------------------
       NWT REQUIRED            4 OUTER ITERATIONS 
       AND A TOTAL OF          7 INNER ITERATIONS.
    ------------------------------------------------

 NO OUTPUT CONTROL FOR STRESS PERIOD   36   TIME STEP   17
 
 SOLVING FOR HEAD 
                                                   Max.-Head-Change                         Max.-Flux-Residual
  Residual-Control   Outer-Iter.   Inner-Iter.     Column Row Layer    Maximum-Head-Change  Column Row Layer    Maximum-Flux-Residual          L2-NORM 
          0                 1           2             4    6     1      -0.2829954483E-01       4    6    1        -0.1546492091E+01      0.2939820927E+01
          0                 2           2             4    6     1       0.2752690435E-02       4    6    1         0.1546434304E+00      0.2939728845E+00
          0                 3           2             4    6     1      -0.1874488310E-03       4    6    1        -0.1082509948E-01      0.2057773519E-01
          0                 4           1             4    6     1       0.7458758951E-05       4    6    1         0.4427469230E-03      0.8416099177E-03

    ------------------------------------------------
       NWT REQUIRED            4 OUTER ITERATIONS 
       AND A TOTAL OF          7 INNER ITERATIONS.
    ------------------------------------------------

 NO OUTPUT CONTROL FOR STRESS PERIOD   36   TIME STEP   18
 
 SOLVING FOR HEAD 
                                                   Max.-Head-Change                         Max.-Flux-Residual
  Residual-Control   Outer-Iter.   Inner-Iter.     Column Row Layer    Maximum-Head-Change  Column Row Layer    Maximum-Flux-Residual          L2-NORM 
          0                 1           2             4    6     1      -0.2691603293E-01       4    6    1        -0.1470429346E+01      0.2822449047E+01
          0                 2           2             4    6     1       0.2618120864E-02       4    6    1         0.1470377384E+00      0.2822365280E+00
          0                 3           2             4    6     1      -0.1782850597E-03       4    6    1        -0.1029269529E-01      0.1975617007E-01
          0                 4           1             4    6     1       0.7094124512E-05       4    6    1         0.4209715912E-03      0.8079837571E-03

    ------------------------------------------------
       NWT REQUIRED            4 OUTER ITERATIONS 
       AND A TOTAL OF          7 INNER ITERATIONS.
    ------------------------------------------------

 NO OUTPUT CONTROL FOR STRESS PERIOD   36   TIME STEP   19
 
 SOLVING FOR HEAD 
                                                   Max.-Head-Change                         Max.-Flux-Residual
  Residual-Control   Outer-Iter.   Inner-Iter.     Column Row Layer    Maximum-Head-Change  Column Row Layer    Maximum-Flux-Residual          L2-NORM 
          0                 1           2             4    6     1      -0.2560826285E-01       4    6    1        -0.1398561170E+01      0.2711583916E+01
          0                 2           2             4    6     1       0.2490918011E-02       4    6    1         0.1398514411E+00      0.2711593704E+00
          0                 3           2             4    6     1      -0.1696229438E-03       4    6    1        -0.9789649350E-02      0.1898080653E-01
          0                 4           1             4    6     1       0.6749451588E-05       4    6    1         0.4003970096E-03      0.7762795734E-03

    ------------------------------------------------
       NWT REQUIRED            4 OUTER ITERATIONS 
       AND A TOTAL OF          7 INNER ITERATIONS.
    ------------------------------------------------

 NO OUTPUT CONTROL FOR STRESS PERIOD   36   TIME STEP   20
 
 SOLVING FOR HEAD 
                                                   Max.-Head-Change                         Max.-Flux-Residual
  Residual-Control   Outer-Iter.   Inner-Iter.     Column Row Layer    Maximum-Head-Change  Column Row Layer    Maximum-Flux-Residual          L2-NORM 
          0                 1           2             4    6     1      -0.2437090661E-01       4    6    1        -0.1330590582E+01      0.2606784697E+01
          0                 2           2             4    6     1       0.2370563712E-02       4    6    1         0.1330548477E+00      0.2606715403E+00
          0                 3           2             4    6     1      -0.1614271962E-03       4    6    1        -0.9313883188E-02      0.1824668871E-01
          0                 4           1             4    6     1       0.6423335621E-05       4    6    1         0.3809381699E-03      0.7462603424E-03

    ------------------------------------------------
       NWT REQUIRED            4 OUTER ITERATIONS 
       AND A TOTAL OF          7 INNER ITERATIONS.
    ------------------------------------------------

 NO OUTPUT CONTROL FOR STRESS PERIOD   36   TIME STEP   21
 
 SOLVING FOR HEAD 
                                                   Max.-Head-Change                         Max.-Flux-Residual
  Residual-Control   Outer-Iter.   Inner-Iter.     Column Row Layer    Maximum-Head-Change  Column Row Layer    Maximum-Flux-Residual          L2-NORM 
          0                 1           2             4    6     1      -0.2320032186E-01       4    6    1        -0.1266315435E+01      0.2507647937E+01
          0                 2           2             4    6     1       0.2256703289E-02       4    6    1         0.1266277630E+00      0.2507586310E+00
          0                 3           2             4    6     1      -0.1536732177E-03       4    6    1        -0.8863954224E-02      0.1755280105E-01
          0                 4           1             4    6     1       0.6114797797E-05       4    6    1         0.3625360619E-03      0.7178869697E-03

    ------------------------------------------------
       NWT REQUIRED            4 OUTER ITERATIONS 
       AND A TOTAL OF          7 INNER ITERATIONS.
    ------------------------------------------------

 NO OUTPUT CONTROL FOR STRESS PERIOD   36   TIME STEP   22
 
 SOLVING FOR HEAD 
                                                   Max.-Head-Change                         Max.-Flux-Residual
  Residual-Control   Outer-Iter.   Inner-Iter.     Column Row Layer    Maximum-Head-Change  Column Row Layer    Maximum-Flux-Residual          L2-NORM 
          0                 1           2             4    6     1      -0.2209206737E-01       4    6    1        -0.1205487580E+01      0.2413809539E+01
          0                 2           2             4    6     1       0.2148948814E-02       4    6    1         0.1205483181E+00      0.2413778776E+00
          0                 3           2             4    6     1      -0.1463354863E-03       4    6    1        -0.8438388316E-02      0.1689615309E-01
          0                 4           1             4    6     1       0.5822825452E-05       4    6    1         0.3451305552E-03      0.6910363429E-03

    ------------------------------------------------
       NWT REQUIRED            4 OUTER ITERATIONS 
       AND A TOTAL OF          7 INNER ITERATIONS.
    ------------------------------------------------

 NO OUTPUT CONTROL FOR STRESS PERIOD   36   TIME STEP   23
 
 SOLVING FOR HEAD 
                                                   Max.-Head-Change                         Max.-Flux-Residual
  Residual-Control   Outer-Iter.   Inner-Iter.     Column Row Layer    Maximum-Head-Change  Column Row Layer    Maximum-Flux-Residual          L2-NORM 
          0                 1           2             4    6     1      -0.2104213474E-01       4    6    1        -0.1147889263E+01      0.2324922587E+01
          0                 2           2             4    6     1       0.2046822462E-02       4    6    1         0.1147887052E+00      0.2324895627E+00
          0                 3           2             4    6     1      -0.1393810554E-03       4    6    1        -0.8035214927E-02      0.1627399289E-01
          0                 4           1             4    6     1       0.5546102219E-05       4    6    1         0.3286407291E-03      0.6655872869E-03

    ------------------------------------------------
       NWT REQUIRED            4 OUTER ITERATIONS 
       AND A TOTAL OF          7 INNER ITERATIONS.
    ------------------------------------------------

 NO OUTPUT CONTROL FOR STRESS PERIOD   36   TIME STEP   24
 
 SOLVING FOR HEAD 
                                                   Max.-Head-Change                         Max.-Flux-Residual
  Residual-Control   Outer-Iter.   Inner-Iter.     Column Row Layer    Maximum-Head-Change  Column Row Layer    Maximum-Flux-Residual          L2-NORM 
          0                 1           2             4    6     1      -0.2004749925E-01       4    6    1        -0.1093346952E+01      0.2240683326E+01
          0                 2           2             4    6     1       0.1950071973E-02       4    6    1         0.1093345021E+00      0.2240658011E+00
          0                 3           2             4    6     1      -0.1327927013E-03       4    6    1        -0.7653420268E-02      0.1568434122E-01
          0                 4           1             4    6     1       0.5283945621E-05       4    6    1         0.3130253151E-03      0.6414571234E-03

    ------------------------------------------------
       NWT REQUIRED            4 OUTER ITERATIONS 
       AND A TOTAL OF          7 INNER ITERATIONS.
    ------------------------------------------------

 NO OUTPUT CONTROL FOR STRESS PERIOD   36   TIME STEP   25
 
 SOLVING FOR HEAD 
                                                   Max.-Head-Change                         Max.-Flux-Residual
  Residual-Control   Outer-Iter.   Inner-Iter.     Column Row Layer    Maximum-Head-Change  Column Row Layer    Maximum-Flux-Residual          L2-NORM 
          0                 1           2             4    6     1      -0.1910450007E-01       4    6    1        -0.1041657117E+01      0.2160779237E+01
          0                 2           2             4    6     1       0.1858337453E-02       4    6    1         0.1041655431E+00      0.2156666617E+00
          0                 3           2             4    6     1      -0.1265459174E-03       4    6    1        -0.7291592772E-02      0.1509643080E-01
          0                 4           1             4    6     1       0.5035380527E-05       4    6    1         0.2982265423E-03      0.6174247820E-03

    ------------------------------------------------
       NWT REQUIRED            4 OUTER ITERATIONS 
       AND A TOTAL OF          7 INNER ITERATIONS.
    ------------------------------------------------

 NO OUTPUT CONTROL FOR STRESS PERIOD   36   TIME STEP   26
 
 SOLVING FOR HEAD 
                                                   Max.-Head-Change                         Max.-Flux-Residual
  Residual-Control   Outer-Iter.   Inner-Iter.     Column Row Layer    Maximum-Head-Change  Column Row Layer    Maximum-Flux-Residual          L2-NORM 
          0                 1           2             4    6     1      -0.1821056424E-01       4    6    1        -0.9926746040E+00      0.2085304087E+01
          0                 2           2             4    6     1       0.1771388984E-02       4    6    1         0.9926731328E-01      0.2085283728E+00
          0                 3           2             4    6     1      -0.1206250458E-03       4    6    1        -0.6948716331E-02      0.1459675754E-01
          0                 4           1             4    6     1       0.4799783636E-05       4    6    1         0.2842028864E-03      0.5971038870E-03

    ------------------------------------------------
       NWT REQUIRED            4 OUTER ITERATIONS 
       AND A TOTAL OF          7 INNER ITERATIONS.
    ------------------------------------------------

 NO OUTPUT CONTROL FOR STRESS PERIOD   36   TIME STEP   27
 
 SOLVING FOR HEAD 
                                                   Max.-Head-Change                         Max.-Flux-Residual
  Residual-Control   Outer-Iter.   Inner-Iter.     Column Row Layer    Maximum-Head-Change  Column Row Layer    Maximum-Flux-Residual          L2-NORM 
          0                 1           2             4    6     1      -0.1736217150E-01       4    6    1        -0.9462056469E+00      0.2013828730E+01
          0                 2           2             4    6     1       0.1688863790E-02       4    6    1         0.9462043638E-01      0.2013809689E+00
          0                 3           2             4    6     1      -0.1150053834E-03       4    6    1        -0.6623434620E-02      0.1409645626E-01
          0                 4           1             4    6     1       0.4576172449E-05       4    6    1         0.2708988598E-03      0.5765219962E-03

    ------------------------------------------------
       NWT REQUIRED            4 OUTER ITERATIONS 
       AND A TOTAL OF          7 INNER ITERATIONS.
    ------------------------------------------------

 NO OUTPUT CONTROL FOR STRESS PERIOD   36   TIME STEP   28
 
 SOLVING FOR HEAD 
                                                   Max.-Head-Change                         Max.-Flux-Residual
  Residual-Control   Outer-Iter.   Inner-Iter.     Column Row Layer    Maximum-Head-Change  Column Row Layer    Maximum-Flux-Residual          L2-NORM 
          0                 1           2             4    6     1      -0.1655712082E-01       4    6    1        -0.9021280783E+00      0.1945895806E+01
          0                 2           2             4    6     1       0.1610554563E-02       4    6    1         0.9021269599E-01      0.1945877728E+00
          0                 3           2             4    6     1      -0.1096728129E-03       4    6    1        -0.6314892512E-02      0.1362094294E-01
          0                 4           1             4    6     1       0.4363984453E-05       4    6    1         0.2582794623E-03      0.5570913221E-03

    ------------------------------------------------
       NWT REQUIRED            4 OUTER ITERATIONS 
       AND A TOTAL OF          7 INNER ITERATIONS.
    ------------------------------------------------

 NO OUTPUT CONTROL FOR STRESS PERIOD   36   TIME STEP   29
 
 SOLVING FOR HEAD 
                                                   Max.-Head-Change                         Max.-Flux-Residual
  Residual-Control   Outer-Iter.   Inner-Iter.     Column Row Layer    Maximum-Head-Change  Column Row Layer    Maximum-Flux-Residual          L2-NORM 
          0                 1           2             4    6     1      -0.1579309037E-01       4    6    1        -0.8603125939E+00      0.1881294975E+01
          0                 2           2             4    6     1       0.1536191992E-02       4    6    1         0.8603116199E-01      0.1879972884E+00
          0                 3           2             4    6     1      -0.1046089947E-03       4    6    1        -0.6022184881E-02      0.1315963306E-01
          0                 4           1             4    6     1       0.4162490659E-05       4    6    1         0.2463077044E-03      0.5382028536E-03

    ------------------------------------------------
       NWT REQUIRED            4 OUTER ITERATIONS 
       AND A TOTAL OF          7 INNER ITERATIONS.
    ------------------------------------------------

 NO OUTPUT CONTROL FOR STRESS PERIOD   36   TIME STEP   30



 STREAM LISTING     PERIOD     36   STEP       30

 LAYER ROW COL. STREAM  RCH.  FLOW INTO     FLOW TO   FLOW OUT OF   OVRLND.     DIRECT     STREAM       STREAM     STREAM     STREAM   STREAMBED  STREAMBED
                SEG.NO.  NO.  STRM. RCH.    AQUIFER    STRM. RCH.    RUNOFF     PRECIP       ET          HEAD       DEPTH      WIDTH   CONDCTNC.   GRADIENT

   1    1    1     1     1    1.9499E+01  2.1750E-01   1.9282E+01  0.000E+00  0.000E+00  0.000E+00  1.09414E+03  1.090E+00  1.182E+01  5.318E-02  1.363E+00
   1    2    2     1     2    1.9282E+01  3.3555E-01   1.8946E+01  0.000E+00  0.000E+00  0.000E+00  1.08914E+03  1.086E+00  1.173E+01  8.213E-02  1.362E+00
   1    3    3     1     3    1.8946E+01  2.8492E-01   1.8661E+01  0.000E+00  0.000E+00  0.000E+00  1.08350E+03  1.081E+00  1.164E+01  6.982E-02  1.360E+00
   1    3    4     1     4    1.8661E+01  2.6135E-01   1.8400E+01  0.000E+00  0.000E+00  0.000E+00  1.07848E+03  1.076E+00  1.155E+01  6.412E-02  1.359E+00
   1    4    5     2     1    1.6400E+01  3.0673E-01   1.6093E+01  0.000E+00  0.000E+00  0.000E+00  1.07287E+03  9.324E-01  1.200E+01  7.800E-02  1.311E+00
   1    5    6     2     2    1.6093E+01  2.3538E-01   1.5858E+01  0.000E+00  0.000E+00  0.000E+00  1.06743E+03  9.230E-01  1.200E+01  6.000E-02  1.308E+00
   1    6    6     2     3    1.5858E+01  2.3489E-01   1.5623E+01  0.000E+00  0.000E+00  0.000E+00  1.06271E+03  9.149E-01  1.200E+01  6.000E-02  1.305E+00
   1    7    6     2     4    1.5623E+01  2.3440E-01   1.5389E+01  0.000E+00  0.000E+00  0.000E+00  1.05798E+03  9.067E-01  1.200E+01  6.000E-02  1.302E+00
   1    8    6     2     5    1.5389E+01  2.3390E-01   1.5155E+01  0.000E+00  0.000E+00  0.000E+00  1.05326E+03  8.984E-01  1.200E+01  6.000E-02  1.299E+00
   1    3    5     3     1    2.0000E+00  2.8252E-01   1.7175E+00  0.000E+00  0.000E+00  0.000E+00  1.07555E+03  1.909E+00  9.636E+00  7.227E-02  1.955E+00
   1    3    6     3     2    1.7175E+00  2.4905E-01   1.4684E+00  0.000E+00  0.000E+00  0.000E+00  1.07264E+03  1.727E+00  8.909E+00  6.682E-02  1.864E+00
   1    3    7     3     3    1.4684E+00  1.9718E-01   1.2712E+00  0.000E+00  0.000E+00  0.000E+00  1.06987E+03  1.555E+00  8.218E+00  5.547E-02  1.777E+00
   1    4    8     3     4    1.2712E+00  2.2567E-01   1.0456E+00  0.000E+00  0.000E+00  0.000E+00  1.06682E+03  1.364E+00  7.455E+00  6.709E-02  1.682E+00
   1    5    8     3     5    1.0456E+00  1.5790E-01   8.8768E-01  0.000E+00  0.000E+00  0.000E+00  1.06362E+03  1.164E+00  6.655E+00  4.991E-02  1.582E+00
   1    6    8     3     6    8.8768E-01  5.5980E-02   8.3170E-01  0.000E+00  0.000E+00  0.000E+00  1.06158E+03  1.036E+00  6.145E+00  1.844E-02  1.518E+00
   1    5   10     4     1    1.0000E+01  9.0919E-02   9.9091E+00  0.000E+00  0.000E+00  0.000E+00  1.07836E+03  6.368E-01  1.000E+01  2.500E-02  1.212E+00
   1    5    9     4     2    9.9091E+00  1.8158E-01   9.7275E+00  0.000E+00  0.000E+00  0.000E+00  1.07154E+03  6.315E-01  1.000E+01  5.000E-02  1.211E+00
   1    6    8     4     3    9.7275E+00  1.2689E-01   9.6006E+00  0.000E+00  0.000E+00  0.000E+00  1.06381E+03  6.256E-01  1.000E+01  3.500E-02  1.209E+00
   1    6    8     5     1    1.0432E+01  2.2686E-01   1.0205E+01  0.000E+00  0.000E+00  0.000E+00  1.05868E+03  6.790E-01  1.542E+01  6.166E-02  1.226E+00
   1    7    7     5     2    1.0205E+01  2.7894E-01   9.9265E+00  0.000E+00  0.000E+00  0.000E+00  1.05417E+03  6.732E-01  1.519E+01  7.594E-02  1.224E+00
   1    8    7     5     3    9.9265E+00  1.9221E-01   9.7343E+00  0.000E+00  0.000E+00  0.000E+00  1.04992E+03  6.676E-01  1.497E+01  5.241E-02  1.223E+00
   1    8    6     5     4    9.7343E+00  1.3577E-01   9.5985E+00  0.000E+00  0.000E+00  0.000E+00  1.04691E+03  6.637E-01  1.482E+01  3.706E-02  1.221E+00
   1    9    6     6     1    2.4753E+01  2.5261E-01   2.4501E+01  0.000E+00  0.000E+00  0.000E+00  1.04394E+03  1.210E+00  1.200E+01  6.000E-02  1.403E+00
   1   10    7     6     2    2.4501E+01  2.5216E-01   2.4249E+01  0.000E+00  0.000E+00  0.000E+00  1.03938E+03  1.203E+00  1.200E+01  6.000E-02  1.401E+00
   1   11    7     6     3    2.4249E+01  2.5171E-01   2.3997E+01  0.000E+00  0.000E+00  0.000E+00  1.03483E+03  1.195E+00  1.200E+01  6.000E-02  1.398E+00
   1   12    7     6     4    2.3997E+01  2.5126E-01   2.3746E+01  0.000E+00  0.000E+00  0.000E+00  1.03028E+03  1.188E+00  1.200E+01  6.000E-02  1.396E+00
   1   13    7     6     5    2.3746E+01  3.4597E-03   2.3742E+01  0.000E+00  0.000E+00  0.000E+00  1.02709E+03  1.184E+00  1.200E+01  2.400E-02  4.805E-02
   1   14    9     7     1    1.5000E+02  1.3482E+00   1.4865E+02  0.000E+00  0.000E+00  0.000E+00  1.03987E+03  2.288E+00  5.529E+01  5.593E-01  8.035E-01
   1   13    8     7     2    1.4865E+02  1.8751E+00   1.4678E+02  0.000E+00  0.000E+00  0.000E+00  1.03478E+03  2.279E+00  5.526E+01  6.148E-01  1.017E+00
   1   13    7     7     3    1.4678E+02  1.5304E+00   1.4525E+02  0.000E+00  0.000E+00  0.000E+00  1.02969E+03  2.270E+00  5.522E+01  5.584E-01  9.135E-01
   1   13    6     8     1    1.6899E+02  9.7089E-01   1.6802E+02  0.000E+00  0.000E+00  0.000E+00  1.02482E+03  2.942E+00  4.267E+01  4.348E-01  7.444E-01
   1   13    5     8     2    1.6802E+02  2.1776E-01   1.6780E+02  0.000E+00  0.000E+00  0.000E+00  1.01856E+03  2.939E+00  4.261E+01  4.342E-01  1.672E-01
   1   13    4     8     3    1.6780E+02 -2.3040E+00   1.7010E+02  0.000E+00  0.000E+00  0.000E+00  1.01232E+03  2.945E+00  4.271E+01  4.352E+00 -1.765E-01
   1   13    3     8     4    1.7010E+02 -3.5856E+00   1.7369E+02  0.000E+00  0.000E+00  0.000E+00  1.00609E+03  2.965E+00  4.299E+01  4.380E+00 -2.729E-01
   1   13    2     8     5    1.7369E+02 -2.5679E+00   1.7626E+02  0.000E+00  0.000E+00  0.000E+00  9.99859E+02  2.984E+00  4.327E+01  4.410E+00 -1.941E-01
   1   13    1     8     6    1.7626E+02 -1.9893E+00   1.7825E+02  0.000E+00  0.000E+00  0.000E+00  9.94874E+02  2.999E+00  4.348E+01  2.659E+00 -2.494E-01
   1    8    6     9     1    0.0000E+00  0.0000E+00   0.0000E+00  0.000E+00  0.000E+00  0.000E+00  1.07875E+03  0.000E+00  4.000E+00  0.000E+00  1.000E+00
   1    8    5     9     2    0.0000E+00  0.0000E+00   0.0000E+00  0.000E+00  0.000E+00  0.000E+00  1.07825E+03  0.000E+00  4.000E+00  0.000E+00  1.000E+00





UNSATURATED ZONE PACKAGE VOLUMETRIC BUDGET FOR  TIME STEP    30 STRESS PERIOD   36
  ------------------------------------------------------------------------------



     CUMULATIVE VOLUMES      L**3       RATES FOR THIS TIME STEP      L**3/T
     ------------------                 ------------------------

           IN:                                      IN:
           ---                                      ---
        INFILTRATION =  1544453037.2428          INFILTRATION =           0.8475

          OUT:                                     OUT:
          ----                                     ----
              UZF ET =  1282152352.4970                UZF ET =           0.7500
        UZF RECHARGE =    81203290.6307          UZF RECHARGE =       0.0000E+00

            IN - OUT =   181097394.1151              IN - OUT =       9.7500E-02

          STORAGE:                                 STORAGE:
          --------                                 --------
      STORAGE CHANGE =   181098552.3898        STORAGE CHANGE =       9.7500E-02

 PERCENT DISCREPANCY IS DIFFERENCE BETWEEN IN-OUT MINUS CHANGE IN STORAGE
 DIVIDED BY THE AVERAGE OF IN AND OUT TIMES 100

 PERCENT DISCREPANCY =          -0.00     PERCENT DISCREPANCY =           0.00






1
  VOLUMETRIC BUDGET FOR AGRICULTURAL FIELDS AT  END OF TIME STEP   30, STRESS PERIOD  36
  ------------------------------------------------------------------------------

     CUMULATIVE VOLUMES      L**3       RATES FOR THIS TIME STEP      L**3/T
     ------------------                 ------------------------

           IN:                                      IN:
           ---                                      ---
               AG WELLS  =   541941056.0000                 AG WELLS  =           0.0000
      DIVERSION SEGMENTS =   924417408.0000        DIVERSION SEGMENTS =           0.0000
           GW IRRIGATION =           0.0000             GW IRRIGATION =           0.0000
           SW IRRIGATION =           0.0000             SW IRRIGATION =           0.0000
        SYSTEM LOSSES GW =           0.0000          SYSTEM LOSSES GW =           0.0000
        SYSTEM LOSSES SW =           0.0000          SYSTEM LOSSES SW =           0.0000

                TOTAL IN =  1466358528.0000                  TOTAL IN =           0.0000

          OUT:                                     OUT:
          ----                                     ----
               AG WELLS  =           0.0000                 AG WELLS  =           0.0000
      DIVERSION SEGMENTS =           0.0000        DIVERSION SEGMENTS =           0.0000
           GW IRRIGATION =   541941056.0000             GW IRRIGATION =           0.0000
           SW IRRIGATION =   924435904.0000             SW IRRIGATION =           0.0000
        SYSTEM LOSSES GW =           0.0000          SYSTEM LOSSES GW =           0.0000
        SYSTEM LOSSES SW =           0.0000          SYSTEM LOSSES SW =           0.0000

               TOTAL OUT =  1466376960.0000                 TOTAL OUT =           0.0000

                IN - OUT =      -18432.0000                  IN - OUT =           0.0000

     PERCENT DISCREPANCY =          -0.00         PERCENT DISCREPANCY =           0.00



1
  VOLUMETRIC BUDGET FOR ENTIRE MODEL AT END OF TIME STEP   30, STRESS PERIOD  36
  ------------------------------------------------------------------------------

     CUMULATIVE VOLUMES      L**3       RATES FOR THIS TIME STEP      L**3/T
     ------------------                 ------------------------

           IN:                                      IN:
           ---                                      ---
             STORAGE     =   893049280.0000               STORAGE     =           4.6995
       CONSTANT HEAD     =           0.0000         CONSTANT HEAD     =           0.0000
     HEAD DEP BOUNDS     =    26346910.0000       HEAD DEP BOUNDS     =           0.2866
      STREAM LEAKAGE     =  1108599168.0000        STREAM LEAKAGE     =          11.6996
        UZF RECHARGE     =    81203288.0000          UZF RECHARGE     =           0.0000
               GW ET     =           0.0000                 GW ET     =           0.0000
     SURFACE LEAKAGE     =           0.0000       SURFACE LEAKAGE     =           0.0000
           AG WELLS      =           0.0000             AG WELLS      =           0.0000

                TOTAL IN =  2109198720.0000                  TOTAL IN =          16.6858

          OUT:                                     OUT:
          ----                                     ----
             STORAGE     =   554194688.0000               STORAGE     =           5.9494
       CONSTANT HEAD     =           0.0000         CONSTANT HEAD     =           0.0000
     HEAD DEP BOUNDS     =    26787010.0000       HEAD DEP BOUNDS     =           0.2896
      STREAM LEAKAGE     =   983610112.0000        STREAM LEAKAGE     =          10.4467
        UZF RECHARGE     =           0.0000          UZF RECHARGE     =           0.0000
               GW ET     =     2673563.7500                 GW ET     =           0.0000
     SURFACE LEAKAGE     =           0.0000       SURFACE LEAKAGE     =           0.0000
           AG WELLS      =   541941056.0000             AG WELLS      =           0.0000

               TOTAL OUT =  2109206528.0000                 TOTAL OUT =          16.6857

                IN - OUT =       -7808.0000                  IN - OUT =       9.5367E-06

     PERCENT DISCREPANCY =          -0.00         PERCENT DISCREPANCY =           0.00






         TIME SUMMARY AT END OF TIME STEP   30 IN STRESS PERIOD   36
                    SECONDS     MINUTES      HOURS       DAYS        YEARS
                    -----------------------------------------------------------
   TIME STEP LENGTH  87667.      1461.1      24.352      1.0147     2.77799E-03
 STRESS PERIOD TIME 2.63000E+06  43833.      730.56      30.440     8.33397E-02
         TOTAL TIME 9.21360E+07 1.53560E+06  25593.      1066.4      2.9196    
1
1
                            STRESS PERIOD NO.   37, LENGTH =   2630000.    
                            -----------------------------------------------

                              NUMBER OF TIME STEPS =    30

                               MULTIPLIER FOR DELT =     1.000

                            INITIAL TIME STEP SIZE =   87666.66    

 REUSING NON-PARAMETER GHB CELLS FROM LAST STRESS PERIOD

      2 GHB CELLS

 REUSING STREAM SEGMENT DATA FROM LAST STRESS PERIOD



            AREAL INFILTRATION RATE
 READING ON UNIT   19 WITH FORMAT: (FREE)              

            1           2           3           4           5           6           7           8           9          10
 ........................................................................................................................
   1   1.0000E-10  2.0000E-10   0.000       0.000       0.000       0.000       0.000       0.000       0.000       0.000    
   2   2.0000E-10  1.0000E-10  2.0000E-10   0.000       0.000      8.0000E-10  8.0000E-10  5.0000E-10   0.000       0.000    
   3    0.000      5.0000E-10  1.0000E-10  1.0000E-10  8.0000E-10  8.0000E-10  5.0000E-10  5.0000E-10   0.000       0.000    
   4   8.0000E-10  5.0000E-10  1.0000E-10  1.0000E-10  1.0000E-10  1.0000E-10  1.0000E-10  1.0000E-10  2.0000E-10   0.000    
   5   8.0000E-10  5.0000E-10  1.0000E-10  1.0000E-10  1.0000E-10  1.0000E-10  1.0000E-10  1.0000E-10  1.0000E-10  1.0000E-10
   6   8.0000E-10  5.0000E-10  5.0000E-10  2.0000E-10  2.0000E-10  1.0000E-10  1.0000E-10  1.0000E-10  1.0000E-10  5.0000E-10
   7   8.0000E-10  5.0000E-10  5.0000E-10  2.0000E-10  2.0000E-10  1.0000E-10  1.0000E-10  2.0000E-10  2.0000E-10   0.000    
   8    0.000      5.0000E-10  5.0000E-10  2.0000E-10  2.0000E-10  1.0000E-10  1.0000E-10  2.0000E-10  5.0000E-10   0.000    
   9    0.000      5.0000E-10  5.0000E-10  2.0000E-10  2.0000E-10  1.0000E-10  1.0000E-10  2.0000E-10  5.0000E-10   0.000    
  10    0.000      5.0000E-10  5.0000E-10  2.0000E-10  2.0000E-10  1.0000E-10  1.0000E-10  2.0000E-10  5.0000E-10  8.0000E-10
  11    0.000      1.0000E-10  1.0000E-10  1.0000E-10  1.0000E-10  1.0000E-10  1.0000E-10  2.0000E-10  5.0000E-10   0.000    
  12   1.0000E-10  1.0000E-10  1.0000E-10  1.0000E-10  1.0000E-10  1.0000E-10  1.0000E-10  1.0000E-10  2.0000E-10   0.000    
  13   1.0000E-10  1.0000E-10  2.0000E-10  2.0000E-10  2.0000E-10  2.0000E-10  2.0000E-10  1.0000E-10  1.0000E-10   0.000    
  14    0.000      2.0000E-10  5.0000E-10  5.0000E-10  5.0000E-10  5.0000E-10  5.0000E-10  2.0000E-10  1.0000E-10   0.000    
  15    0.000       0.000      8.0000E-10  8.0000E-10  8.0000E-10  8.0000E-10   0.000       0.000       0.000       0.000    

                  ET RATE =  5.000000E-10

 USING ET EXTINCTION DEPTH FROM PREVIOUS STRESS PERIOD. CURRENT PERIOD IS:      37

 USING EXTINCTION WATER CONTENT FROM PREVIOUS STRESS PERIOD. CURRENT PERIOD IS:      37

 USING AIR ENTRY PRESSURE FROM PREVIOUS STRESS PERIOD. CURRENT PERIOD IS:      37

 USING ROOT PRESSURE HEAD FROM PREVIOUS STRESS PERIOD. CURRENT PERIOD IS:      37

 USING ROOT ACTIVITY FROM PREVIOUS STRESS PERIOD. CURRENT PERIOD IS:      37

 PROCESSING AG STRESS PERIOD DATA

 READING AG STRESS PERIOD DATA

 READING IRRIGATION SEGMENT

 READING IRRIGATION WELL

 READING SUPPLEMENTAL WELL

 END PROCESSING AG STRESS PERIOD DATA OPTIONS
 
 SOLVING FOR HEAD 
                                                   Max.-Head-Change                         Max.-Flux-Residual
  Residual-Control   Outer-Iter.   Inner-Iter.     Column Row Layer    Maximum-Head-Change  Column Row Layer    Maximum-Flux-Residual          L2-NORM 
          0                 1           2             4    6     1      -0.1506751501E-01       4    6    1        -0.8205966738E+00      0.1820290575E+01
          0                 2           2             4    6     1       0.1465657042E-02       4    6    1         0.8205958344E-01      0.1820244816E+00
          0                 3           1             4    6     1      -0.9980584693E-04       4    6    1        -0.5744174110E-02      0.1274125586E-01

    ------------------------------------------------
       NWT REQUIRED            3 OUTER ITERATIONS 
       AND A TOTAL OF          5 INNER ITERATIONS.
    ------------------------------------------------

 NO OUTPUT CONTROL FOR STRESS PERIOD   37   TIME STEP    1
 
 SOLVING FOR HEAD 
                                                   Max.-Head-Change                         Max.-Flux-Residual
  Residual-Control   Outer-Iter.   Inner-Iter.     Column Row Layer    Maximum-Head-Change  Column Row Layer    Maximum-Flux-Residual          L2-NORM 
          0                 1           2             4    6     1      -0.1437857695E-01       4    6    1        -0.7829030329E+00      0.1764977050E+01
          0                 2           2             4    6     1       0.1398642326E-02       4    6    1         0.7829023100E-01      0.1764777164E+00
          0                 3           1             4    6     1      -0.9524239385E-04       4    6    1        -0.5480319218E-02      0.1235151066E-01

    ------------------------------------------------
       NWT REQUIRED            3 OUTER ITERATIONS 
       AND A TOTAL OF          5 INNER ITERATIONS.
    ------------------------------------------------

 NO OUTPUT CONTROL FOR STRESS PERIOD   37   TIME STEP    2
 
 SOLVING FOR HEAD 
                                                   Max.-Head-Change                         Max.-Flux-Residual
  Residual-Control   Outer-Iter.   Inner-Iter.     Column Row Layer    Maximum-Head-Change  Column Row Layer    Maximum-Flux-Residual          L2-NORM 
          0                 1           2             4    6     1      -0.1372381601E-01       4    6    1        -0.7470936917E+00      0.1709390996E+01
          0                 2           2             4    6     1       0.1334952091E-02       4    6    1         0.7470930702E-01      0.1709211257E+00
          0                 3           1             4    6     1      -0.9090532585E-04       4    6    1        -0.5229654334E-02      0.1196278120E-01

    ------------------------------------------------
       NWT REQUIRED            3 OUTER ITERATIONS 
       AND A TOTAL OF          5 INNER ITERATIONS.
    ------------------------------------------------

 NO OUTPUT CONTROL FOR STRESS PERIOD   37   TIME STEP    3
 
 SOLVING FOR HEAD 
                                                   Max.-Head-Change                         Max.-Flux-Residual
  Residual-Control   Outer-Iter.   Inner-Iter.     Column Row Layer    Maximum-Head-Change  Column Row Layer    Maximum-Flux-Residual          L2-NORM 
          0                 1           2             3    7     1       0.1320046024E-01       4    6    1        -0.7130712013E+00      0.1656405184E+01
          0                 2           2             3    7     1      -0.1284042981E-02       4    6    1         0.7130706687E-01      0.1656243569E+00
          0                 3           1             3    7     1       0.8743861742E-04       4    6    1        -0.4991497357E-02      0.1159224625E-01

    ------------------------------------------------
       NWT REQUIRED            3 OUTER ITERATIONS 
       AND A TOTAL OF          5 INNER ITERATIONS.
    ------------------------------------------------

 NO OUTPUT CONTROL FOR STRESS PERIOD   37   TIME STEP    4
 
 SOLVING FOR HEAD 
                                                   Max.-Head-Change                         Max.-Flux-Residual
  Residual-Control   Outer-Iter.   Inner-Iter.     Column Row Layer    Maximum-Head-Change  Column Row Layer    Maximum-Flux-Residual          L2-NORM 
          0                 1           2             3    7     1       0.1290916971E-01       4    6    1        -0.6807441176E+00      0.1605881316E+01
          0                 2           2             3    7     1      -0.1255707570E-02       4    6    1         0.6839536278E-01      0.1606404298E+00
          0                 3           1             3    7     1       0.8550909029E-04       4    6    1        -0.4787677212E-02      0.1124351016E-01

    ------------------------------------------------
       NWT REQUIRED            3 OUTER ITERATIONS 
       AND A TOTAL OF          5 INNER ITERATIONS.
    ------------------------------------------------

 NO OUTPUT CONTROL FOR STRESS PERIOD   37   TIME STEP    5
 
 SOLVING FOR HEAD 
                                                   Max.-Head-Change                         Max.-Flux-Residual
  Residual-Control   Outer-Iter.   Inner-Iter.     Column Row Layer    Maximum-Head-Change  Column Row Layer    Maximum-Flux-Residual          L2-NORM 
          0                 1           2             3    7     1       0.1262427961E-01       4    6    1        -0.6497493578E+00      0.1557621967E+01
          0                 2           2             3    7     1      -0.1227996394E-02       4    6    1         0.6497496532E-01      0.1557729705E+00
          0                 3           1             3    7     1       0.8362205844E-04       4    6    1        -0.4548249248E-02      0.1090287158E-01

    ------------------------------------------------
       NWT REQUIRED            3 OUTER ITERATIONS 
       AND A TOTAL OF          5 INNER ITERATIONS.
    ------------------------------------------------

 NO OUTPUT CONTROL FOR STRESS PERIOD   37   TIME STEP    6
 
 SOLVING FOR HEAD 
                                                   Max.-Head-Change                         Max.-Flux-Residual
  Residual-Control   Outer-Iter.   Inner-Iter.     Column Row Layer    Maximum-Head-Change  Column Row Layer    Maximum-Flux-Residual          L2-NORM 
          0                 1           2             3    7     1       0.1234594906E-01       4    6    1        -0.6200296589E+00      0.1511477389E+01
          0                 2           2             3    7     1      -0.1200922576E-02       4    6    1         0.6200299568E-01      0.1511352945E+00
          0                 3           1             3    7     1       0.8177842856E-04       4    6    1        -0.4340211291E-02      0.1057837854E-01

    ------------------------------------------------
       NWT REQUIRED            3 OUTER ITERATIONS 
       AND A TOTAL OF          5 INNER ITERATIONS.
    ------------------------------------------------

 NO OUTPUT CONTROL FOR STRESS PERIOD   37   TIME STEP    7
 
 SOLVING FOR HEAD 
                                                   Max.-Head-Change                         Max.-Flux-Residual
  Residual-Control   Outer-Iter.   Inner-Iter.     Column Row Layer    Maximum-Head-Change  Column Row Layer    Maximum-Flux-Residual          L2-NORM 
          0                 1           2             3    7     1       0.1207407508E-01       4    6    1        -0.5917651048E+00      0.1467385591E+01
          0                 2           2             3    7     1      -0.1174476728E-02       4    6    1         0.5917654039E-01      0.1467277566E+00
          0                 3           1             3    7     1       0.7997756175E-04       4    6    1        -0.4142359334E-02      0.1026995771E-01

    ------------------------------------------------
       NWT REQUIRED            3 OUTER ITERATIONS 
       AND A TOTAL OF          5 INNER ITERATIONS.
    ------------------------------------------------

 NO OUTPUT CONTROL FOR STRESS PERIOD   37   TIME STEP    8
 
 SOLVING FOR HEAD 
                                                   Max.-Head-Change                         Max.-Flux-Residual
  Residual-Control   Outer-Iter.   Inner-Iter.     Column Row Layer    Maximum-Head-Change  Column Row Layer    Maximum-Flux-Residual          L2-NORM 
          0                 1           2             3    7     1       0.1180855495E-01       4    6    1        -0.5648992388E+00      0.1425271816E+01
          0                 2           2             3    7     1      -0.1148648934E-02       4    6    1         0.5648995371E-01      0.1425174353E+00
          0                 3           1             3    7     1       0.7821878279E-04       4    6    1        -0.3954298188E-02      0.9975266795E-02

    ------------------------------------------------
       NWT REQUIRED            3 OUTER ITERATIONS 
       AND A TOTAL OF          5 INNER ITERATIONS.
    ------------------------------------------------

 NO OUTPUT CONTROL FOR STRESS PERIOD   37   TIME STEP    9
 
 SOLVING FOR HEAD 
                                                   Max.-Head-Change                         Max.-Flux-Residual
  Residual-Control   Outer-Iter.   Inner-Iter.     Column Row Layer    Maximum-Head-Change  Column Row Layer    Maximum-Flux-Residual          L2-NORM 
          0                 1           2             3    7     1       0.1154928105E-01       4    6    1        -0.5393496693E+00      0.1385018943E+01
          0                 2           2             3    7     1      -0.1123428728E-02       4    6    1         0.5393499653E-01      0.1384929438E+00
          0                 3           1             3    7     1       0.7650137704E-04       4    6    1        -0.3775451110E-02      0.9693656778E-02

    ------------------------------------------------
       NWT REQUIRED            3 OUTER ITERATIONS 
       AND A TOTAL OF          5 INNER ITERATIONS.
    ------------------------------------------------

 NO OUTPUT CONTROL FOR STRESS PERIOD   37   TIME STEP   10
 
 SOLVING FOR HEAD 
                                                   Max.-Head-Change                         Max.-Flux-Residual
  Residual-Control   Outer-Iter.   Inner-Iter.     Column Row Layer    Maximum-Head-Change  Column Row Layer    Maximum-Flux-Residual          L2-NORM 
          0                 1           2             3    7     1       0.1129613525E-01       4    6    1        -0.5150244903E+00      0.1346508792E+01
          0                 2           2             3    7     1      -0.1098804617E-02       4    6    1         0.5150247827E-01      0.1346427118E+00
          0                 3           1             3    7     1       0.7482456431E-04       4    6    1        -0.3605174771E-02      0.9424131027E-02

    ------------------------------------------------
       NWT REQUIRED            3 OUTER ITERATIONS 
       AND A TOTAL OF          5 INNER ITERATIONS.
    ------------------------------------------------

 NO OUTPUT CONTROL FOR STRESS PERIOD   37   TIME STEP   11
 
 SOLVING FOR HEAD 
                                                   Max.-Head-Change                         Max.-Flux-Residual
  Residual-Control   Outer-Iter.   Inner-Iter.     Column Row Layer    Maximum-Head-Change  Column Row Layer    Maximum-Flux-Residual          L2-NORM 
          0                 1           2             3    7     1       0.1104924624E-01       4    6    1        -0.4918531591E+00      0.1309659980E+01
          0                 2           2             3    7     1      -0.1074789118E-02       4    6    1         0.4918534469E-01      0.1309598657E+00
          0                 3           1             3    7     1       0.7318919602E-04       4    6    1        -0.3442975345E-02      0.9166476906E-02

    ------------------------------------------------
       NWT REQUIRED            3 OUTER ITERATIONS 
       AND A TOTAL OF          5 INNER ITERATIONS.
    ------------------------------------------------

 NO OUTPUT CONTROL FOR STRESS PERIOD   37   TIME STEP   12
 
 SOLVING FOR HEAD 
                                                   Max.-Head-Change                         Max.-Flux-Residual
  Residual-Control   Outer-Iter.   Inner-Iter.     Column Row Layer    Maximum-Head-Change  Column Row Layer    Maximum-Flux-Residual          L2-NORM 
          0                 1           2             3    7     1       0.1080799717E-01       4    6    1        -0.4697834569E+00      0.1274401730E+01
          0                 2           2             3    7     1      -0.1051322232E-02       4    6    1         0.4697837399E-01      0.1274334452E+00
          0                 3           1             3    7     1       0.7159118661E-04       4    6    1        -0.3288487326E-02      0.8919707699E-02

    ------------------------------------------------
       NWT REQUIRED            3 OUTER ITERATIONS 
       AND A TOTAL OF          5 INNER ITERATIONS.
    ------------------------------------------------

 NO OUTPUT CONTROL FOR STRESS PERIOD   37   TIME STEP   13
 
 SOLVING FOR HEAD 
                                                   Max.-Head-Change                         Max.-Flux-Residual
  Residual-Control   Outer-Iter.   Inner-Iter.     Column Row Layer    Maximum-Head-Change  Column Row Layer    Maximum-Flux-Residual          L2-NORM 
          0                 1           2             3    7     1       0.1057276167E-01       4    6    1        -0.4487673832E+00      0.1240629249E+01
          0                 2           2             3    7     1      -0.1028440298E-02       4    6    1         0.4487676602E-01      0.1240567984E+00
          0                 3           1             3    7     1       0.7003300990E-04       4    6    1        -0.3141374706E-02      0.8683424817E-02

    ------------------------------------------------
       NWT REQUIRED            3 OUTER ITERATIONS 
       AND A TOTAL OF          5 INNER ITERATIONS.
    ------------------------------------------------

 NO OUTPUT CONTROL FOR STRESS PERIOD   37   TIME STEP   14
 
 SOLVING FOR HEAD 
                                                   Max.-Head-Change                         Max.-Flux-Residual
  Residual-Control   Outer-Iter.   Inner-Iter.     Column Row Layer    Maximum-Head-Change  Column Row Layer    Maximum-Flux-Residual          L2-NORM 
          0                 1           2             3    7     1       0.1034340942E-01       4    6    1        -0.4287158262E+00      0.1208265048E+01
          0                 2           2             3    7     1      -0.1006130642E-02       4    6    1         0.4287160968E-01      0.1208208779E+00
          0                 3           1             3    7     1       0.6851380370E-04       4    6    1        -0.3001013723E-02      0.8457030159E-02

    ------------------------------------------------
       NWT REQUIRED            3 OUTER ITERATIONS 
       AND A TOTAL OF          5 INNER ITERATIONS.
    ------------------------------------------------

 NO OUTPUT CONTROL FOR STRESS PERIOD   37   TIME STEP   15
 
 SOLVING FOR HEAD 
                                                   Max.-Head-Change                         Max.-Flux-Residual
  Residual-Control   Outer-Iter.   Inner-Iter.     Column Row Layer    Maximum-Head-Change  Column Row Layer    Maximum-Flux-Residual          L2-NORM 
          0                 1           2             3    7     1       0.1011956527E-01       4    6    1        -0.4096036418E+00      0.1177261466E+01
          0                 2           2             3    7     1      -0.9843567718E-03       4    6    1         0.4096039060E-01      0.1177208152E+00
          0                 3           1             3    7     1       0.6703108281E-04       4    6    1        -0.2867228316E-02      0.8239976749E-02

    ------------------------------------------------
       NWT REQUIRED            3 OUTER ITERATIONS 
       AND A TOTAL OF          5 INNER ITERATIONS.
    ------------------------------------------------

 NO OUTPUT CONTROL FOR STRESS PERIOD   37   TIME STEP   16
 
 SOLVING FOR HEAD 
                                                   Max.-Head-Change                         Max.-Flux-Residual
  Residual-Control   Outer-Iter.   Inner-Iter.     Column Row Layer    Maximum-Head-Change  Column Row Layer    Maximum-Flux-Residual          L2-NORM 
          0                 1           2             3    7     1       0.9901347861E-02       4    6    1        -0.3913630951E+00      0.1147529979E+01
          0                 2           2             3    7     1      -0.9631302283E-03       4    6    1         0.3913633525E-01      0.1147482748E+00
          0                 3           1             3    7     1       0.6558563228E-04       4    6    1        -0.2739544394E-02      0.8031943945E-02

    ------------------------------------------------
       NWT REQUIRED            3 OUTER ITERATIONS 
       AND A TOTAL OF          5 INNER ITERATIONS.
    ------------------------------------------------

 NO OUTPUT CONTROL FOR STRESS PERIOD   37   TIME STEP   17
 
 SOLVING FOR HEAD 
                                                   Max.-Head-Change                         Max.-Flux-Residual
  Residual-Control   Outer-Iter.   Inner-Iter.     Column Row Layer    Maximum-Head-Change  Column Row Layer    Maximum-Flux-Residual          L2-NORM 
          0                 1           2             3    7     1       0.9688379672E-02       4    6    1        -0.3739607122E+00      0.1119016921E+01
          0                 2           2             3    7     1      -0.9424142886E-03       4    6    1         0.3739609627E-01      0.1118973085E+00
          0                 3           1             3    7     1       0.6417495284E-04       4    6    1        -0.2617727629E-02      0.7832394621E-02

    ------------------------------------------------
       NWT REQUIRED            3 OUTER ITERATIONS 
       AND A TOTAL OF          5 INNER ITERATIONS.
    ------------------------------------------------

 NO OUTPUT CONTROL FOR STRESS PERIOD   37   TIME STEP   18
 
 SOLVING FOR HEAD 
                                                   Max.-Head-Change                         Max.-Flux-Residual
  Residual-Control   Outer-Iter.   Inner-Iter.     Column Row Layer    Maximum-Head-Change  Column Row Layer    Maximum-Flux-Residual          L2-NORM 
          0                 1           2             3    7     1       0.9480781916E-02       4    6    1        -0.3573354454E+00      0.1091654973E+01
          0                 2           2             3    7     1      -0.9222207434E-03       4    6    1         0.3573356890E-01      0.1091617548E+00
          0                 3           1             3    7     1       0.6279984705E-04       4    6    1        -0.2501350675E-02      0.7640939671E-02

    ------------------------------------------------
       NWT REQUIRED            3 OUTER ITERATIONS 
       AND A TOTAL OF          5 INNER ITERATIONS.
    ------------------------------------------------

 NO OUTPUT CONTROL FOR STRESS PERIOD   37   TIME STEP   19
 
 SOLVING FOR HEAD 
                                                   Max.-Head-Change                         Max.-Flux-Residual
  Residual-Control   Outer-Iter.   Inner-Iter.     Column Row Layer    Maximum-Head-Change  Column Row Layer    Maximum-Flux-Residual          L2-NORM 
          0                 1           2             3    7     1       0.9278667557E-02       4    6    1        -0.3414593075E+00      0.1065407350E+01
          0                 2           2             3    7     1      -0.9025605802E-03       4    6    1         0.3414595442E-01      0.1065370488E+00
          0                 3           1             3    7     1       0.6146106102E-04       4    6    1        -0.2390217626E-02      0.7457282908E-02

    ------------------------------------------------
       NWT REQUIRED            3 OUTER ITERATIONS 
       AND A TOTAL OF          5 INNER ITERATIONS.
    ------------------------------------------------

 NO OUTPUT CONTROL FOR STRESS PERIOD   37   TIME STEP   20
 
 SOLVING FOR HEAD 
                                                   Max.-Head-Change                         Max.-Flux-Residual
  Residual-Control   Outer-Iter.   Inner-Iter.     Column Row Layer    Maximum-Head-Change  Column Row Layer    Maximum-Flux-Residual          L2-NORM 
          0                 1           2             3    7     1       0.9081406619E-02       4    6    1        -0.3262912507E+00      0.1040197171E+01
          0                 2           2             3    7     1      -0.8833725207E-03       4    6    1         0.3262914806E-01      0.1040163074E+00
          0                 3           1             3    7     1       0.6015442505E-04       4    6    1        -0.2284041147E-02      0.7280817939E-02

    ------------------------------------------------
       NWT REQUIRED            3 OUTER ITERATIONS 
       AND A TOTAL OF          5 INNER ITERATIONS.
    ------------------------------------------------

 NO OUTPUT CONTROL FOR STRESS PERIOD   37   TIME STEP   21
 
 SOLVING FOR HEAD 
                                                   Max.-Head-Change                         Max.-Flux-Residual
  Residual-Control   Outer-Iter.   Inner-Iter.     Column Row Layer    Maximum-Head-Change  Column Row Layer    Maximum-Flux-Residual          L2-NORM 
          0                 1           2             3    7     1       0.8889125584E-02       4    7    1        -0.3158971805E+00      0.1015997169E+01
          0                 2           2             3    7     1      -0.8646688672E-03       4    7    1         0.3158958816E-01      0.1015966392E+00
          0                 3           1             3    7     1       0.5888077470E-04       4    7    1        -0.2211273353E-02      0.7111482997E-02

    ------------------------------------------------
       NWT REQUIRED            3 OUTER ITERATIONS 
       AND A TOTAL OF          5 INNER ITERATIONS.
    ------------------------------------------------

 NO OUTPUT CONTROL FOR STRESS PERIOD   37   TIME STEP   22
 
 SOLVING FOR HEAD 
                                                   Max.-Head-Change                         Max.-Flux-Residual
  Residual-Control   Outer-Iter.   Inner-Iter.     Column Row Layer    Maximum-Head-Change  Column Row Layer    Maximum-Flux-Residual          L2-NORM 
          0                 1           2             3    7     1       0.8701938470E-02       4    7    1        -0.3066145623E+00      0.9927525187E+00
          0                 2           2             3    7     1      -0.8464607119E-03       4    7    1         0.3066133246E-01      0.9927232834E-01
          0                 3           1             3    7     1       0.5764086674E-04       4    7    1        -0.2146295376E-02      0.6948832678E-02

    ------------------------------------------------
       NWT REQUIRED            3 OUTER ITERATIONS 
       AND A TOTAL OF          5 INNER ITERATIONS.
    ------------------------------------------------

 NO OUTPUT CONTROL FOR STRESS PERIOD   37   TIME STEP   23
 
 SOLVING FOR HEAD 
                                                   Max.-Head-Change                         Max.-Flux-Residual
  Residual-Control   Outer-Iter.   Inner-Iter.     Column Row Layer    Maximum-Head-Change  Column Row Layer    Maximum-Flux-Residual          L2-NORM 
          0                 1           2             3    7     1       0.8519222879E-02       4    7    1        -0.2974931885E+00      0.9704204151E+00
          0                 2           2             3    7     1      -0.8286875113E-03       4    7    1         0.2974920102E-01      0.9703930912E-01
          0                 3           1             3    7     1       0.5643057761E-04       4    7    1        -0.2082446089E-02      0.6792497038E-02

    ------------------------------------------------
       NWT REQUIRED            3 OUTER ITERATIONS 
       AND A TOTAL OF          5 INNER ITERATIONS.
    ------------------------------------------------

 NO OUTPUT CONTROL FOR STRESS PERIOD   37   TIME STEP   24
 
 SOLVING FOR HEAD 
                                                   Max.-Head-Change                         Max.-Flux-Residual
  Residual-Control   Outer-Iter.   Inner-Iter.     Column Row Layer    Maximum-Head-Change  Column Row Layer    Maximum-Flux-Residual          L2-NORM 
          0                 1           2             3    7     1       0.8341352353E-02       4    7    1        -0.2885218015E+00      0.9489534678E+00
          0                 2           2             3    7     1      -0.8113856011E-03       4    7    1         0.2885206812E-01      0.9489280410E-01
          0                 3           1             3    7     1       0.5525238067E-04       4    7    1        -0.2019646716E-02      0.6642275604E-02

    ------------------------------------------------
       NWT REQUIRED            3 OUTER ITERATIONS 
       AND A TOTAL OF          5 INNER ITERATIONS.
    ------------------------------------------------

 NO OUTPUT CONTROL FOR STRESS PERIOD   37   TIME STEP   25
 
 SOLVING FOR HEAD 
                                                   Max.-Head-Change                         Max.-Flux-Residual
  Residual-Control   Outer-Iter.   Inner-Iter.     Column Row Layer    Maximum-Head-Change  Column Row Layer    Maximum-Flux-Residual          L2-NORM 
          0                 1           2             3    7     1       0.8168195360E-02       4    7    1        -0.2797178870E+00      0.9283189906E+00
          0                 2           2             3    7     1      -0.7945421875E-03       4    7    1         0.2797168231E-01      0.9282953932E-01
          0                 3           1             3    7     1       0.5410540650E-04       4    7    1        -0.1958019604E-02      0.6497863444E-02

    ------------------------------------------------
       NWT REQUIRED            3 OUTER ITERATIONS 
       AND A TOTAL OF          5 INNER ITERATIONS.
    ------------------------------------------------

 NO OUTPUT CONTROL FOR STRESS PERIOD   37   TIME STEP   26
 
 SOLVING FOR HEAD 
                                                   Max.-Head-Change                         Max.-Flux-Residual
  Residual-Control   Outer-Iter.   Inner-Iter.     Column Row Layer    Maximum-Head-Change  Column Row Layer    Maximum-Flux-Residual          L2-NORM 
          0                 1           2             3    7     1       0.7999133342E-02       4    7    1        -0.2710832201E+00      0.9084816637E+00
          0                 2           2             3    7     1      -0.7780971009E-03       4    7    1         0.2710822110E-01      0.9084594320E-01
          0                 3           1             3    7     1       0.5298555709E-04       4    7    1        -0.1897577246E-02      0.6359027455E-02

    ------------------------------------------------
       NWT REQUIRED            3 OUTER ITERATIONS 
       AND A TOTAL OF          5 INNER ITERATIONS.
    ------------------------------------------------

 NO OUTPUT CONTROL FOR STRESS PERIOD   37   TIME STEP   27
 
 SOLVING FOR HEAD 
                                                   Max.-Head-Change                         Max.-Flux-Residual
  Residual-Control   Outer-Iter.   Inner-Iter.     Column Row Layer    Maximum-Head-Change  Column Row Layer    Maximum-Flux-Residual          L2-NORM 
          0                 1           2             3    7     1       0.7834543313E-02       4    7    1        -0.2626191404E+00      0.8894011325E+00
          0                 2           2             3    7     1      -0.7620870154E-03       4    7    1         0.2626181842E-01      0.8893802969E-01
          0                 3           1             3    7     1       0.5189532900E-04       4    7    1        -0.1838328983E-02      0.6225461739E-02

    ------------------------------------------------
       NWT REQUIRED            3 OUTER ITERATIONS 
       AND A TOTAL OF          5 INNER ITERATIONS.
    ------------------------------------------------

 NO OUTPUT CONTROL FOR STRESS PERIOD   37   TIME STEP   28
 
 SOLVING FOR HEAD 
                                                   Max.-Head-Change                         Max.-Flux-Residual
  Residual-Control   Outer-Iter.   Inner-Iter.     Column Row Layer    Maximum-Head-Change  Column Row Layer    Maximum-Flux-Residual          L2-NORM 
          0                 1           2             3    7     1       0.7674304192E-02       4    7    1        -0.2543115775E+00      0.8710497279E+00
          0                 2           2             3    7     1      -0.7465001526E-03       4    7    1         0.2543106723E-01      0.8710297874E-01
          0                 3           1             3    7     1       0.5083392192E-04       4    7    1        -0.1780176329E-02      0.6097008601E-02

    ------------------------------------------------
       NWT REQUIRED            3 OUTER ITERATIONS 
       AND A TOTAL OF          5 INNER ITERATIONS.
    ------------------------------------------------

 NO OUTPUT CONTROL FOR STRESS PERIOD   37   TIME STEP   29
 
 SOLVING FOR HEAD 
                                                   Max.-Head-Change                         Max.-Flux-Residual
  Residual-Control   Outer-Iter.   Inner-Iter.     Column Row Layer    Maximum-Head-Change  Column Row Layer    Maximum-Flux-Residual          L2-NORM 
          0                 1           2             3    7     1       0.7518291774E-02       4    7    1        -0.2461908036E+00      0.8533972763E+00
          0                 2           2             3    7     1      -0.7313244310E-03       4    7    1         0.2461899472E-01      0.8533789141E-01
          0                 3           1             3    7     1       0.4980051139E-04       4    7    1        -0.1723331180E-02      0.5973486362E-02

    ------------------------------------------------
       NWT REQUIRED            3 OUTER ITERATIONS 
       AND A TOTAL OF          5 INNER ITERATIONS.
    ------------------------------------------------

 NO OUTPUT CONTROL FOR STRESS PERIOD   37   TIME STEP   30



 STREAM LISTING     PERIOD     37   STEP       30

 LAYER ROW COL. STREAM  RCH.  FLOW INTO     FLOW TO   FLOW OUT OF   OVRLND.     DIRECT     STREAM       STREAM     STREAM     STREAM   STREAMBED  STREAMBED
                SEG.NO.  NO.  STRM. RCH.    AQUIFER    STRM. RCH.    RUNOFF     PRECIP       ET          HEAD       DEPTH      WIDTH   CONDCTNC.   GRADIENT

   1    1    1     1     1    1.7249E+01  2.0269E-01   1.7047E+01  0.000E+00  0.000E+00  0.000E+00  1.09410E+03  1.052E+00  1.112E+01  5.002E-02  1.351E+00
   1    2    2     1     2    1.7047E+01  3.1257E-01   1.6734E+01  0.000E+00  0.000E+00  0.000E+00  1.08911E+03  1.047E+00  1.103E+01  7.723E-02  1.349E+00
   1    3    3     1     3    1.6734E+01  2.6529E-01   1.6469E+01  0.000E+00  0.000E+00  0.000E+00  1.08346E+03  1.042E+00  1.094E+01  6.563E-02  1.347E+00
   1    3    4     1     4    1.6469E+01  2.4324E-01   1.6226E+01  0.000E+00  0.000E+00  0.000E+00  1.07845E+03  1.038E+00  1.085E+01  6.024E-02  1.346E+00
   1    4    5     2     1    1.4226E+01  3.0073E-01   1.3925E+01  0.000E+00  0.000E+00  0.000E+00  1.07279E+03  8.555E-01  1.200E+01  7.800E-02  1.285E+00
   1    5    6     2     2    1.3925E+01  2.3075E-01   1.3694E+01  0.000E+00  0.000E+00  0.000E+00  1.06736E+03  8.458E-01  1.200E+01  6.000E-02  1.282E+00
   1    6    6     2     3    1.3694E+01  2.3024E-01   1.3464E+01  0.000E+00  0.000E+00  0.000E+00  1.06263E+03  8.373E-01  1.200E+01  6.000E-02  1.279E+00
   1    7    6     2     4    1.3464E+01  2.2972E-01   1.3234E+01  0.000E+00  0.000E+00  0.000E+00  1.05790E+03  8.287E-01  1.200E+01  6.000E-02  1.276E+00
   1    8    6     2     5    1.3234E+01  2.2921E-01   1.3005E+01  0.000E+00  0.000E+00  0.000E+00  1.05318E+03  8.202E-01  1.200E+01  6.000E-02  1.273E+00
   1    3    5     3     1    2.0000E+00  2.8252E-01   1.7175E+00  0.000E+00  0.000E+00  0.000E+00  1.07555E+03  1.909E+00  9.636E+00  7.227E-02  1.955E+00
   1    3    6     3     2    1.7175E+00  2.4905E-01   1.4684E+00  0.000E+00  0.000E+00  0.000E+00  1.07264E+03  1.727E+00  8.909E+00  6.682E-02  1.864E+00
   1    3    7     3     3    1.4684E+00  1.9718E-01   1.2712E+00  0.000E+00  0.000E+00  0.000E+00  1.06987E+03  1.555E+00  8.218E+00  5.547E-02  1.777E+00
   1    4    8     3     4    1.2712E+00  2.2567E-01   1.0456E+00  0.000E+00  0.000E+00  0.000E+00  1.06682E+03  1.364E+00  7.455E+00  6.709E-02  1.682E+00
   1    5    8     3     5    1.0456E+00  1.5790E-01   8.8768E-01  0.000E+00  0.000E+00  0.000E+00  1.06362E+03  1.164E+00  6.655E+00  4.991E-02  1.582E+00
   1    6    8     3     6    8.8768E-01  5.5980E-02   8.3170E-01  0.000E+00  0.000E+00  0.000E+00  1.06158E+03  1.036E+00  6.145E+00  1.844E-02  1.518E+00
   1    5   10     4     1    1.0000E+01  9.0919E-02   9.9091E+00  0.000E+00  0.000E+00  0.000E+00  1.07836E+03  6.368E-01  1.000E+01  2.500E-02  1.212E+00
   1    5    9     4     2    9.9091E+00  1.8158E-01   9.7275E+00  0.000E+00  0.000E+00  0.000E+00  1.07154E+03  6.315E-01  1.000E+01  5.000E-02  1.211E+00
   1    6    8     4     3    9.7275E+00  1.2689E-01   9.6006E+00  0.000E+00  0.000E+00  0.000E+00  1.06381E+03  6.256E-01  1.000E+01  3.500E-02  1.209E+00
   1    6    8     5     1    1.0432E+01  2.2686E-01   1.0205E+01  0.000E+00  0.000E+00  0.000E+00  1.05868E+03  6.790E-01  1.542E+01  6.166E-02  1.226E+00
   1    7    7     5     2    1.0205E+01  2.7894E-01   9.9265E+00  0.000E+00  0.000E+00  0.000E+00  1.05417E+03  6.732E-01  1.519E+01  7.594E-02  1.224E+00
   1    8    7     5     3    9.9265E+00  1.9221E-01   9.7343E+00  0.000E+00  0.000E+00  0.000E+00  1.04992E+03  6.676E-01  1.497E+01  5.241E-02  1.223E+00
   1    8    6     5     4    9.7343E+00  1.3577E-01   9.5985E+00  0.000E+00  0.000E+00  0.000E+00  1.04691E+03  6.637E-01  1.482E+01  3.706E-02  1.221E+00
   1    9    6     6     1    2.2604E+01  2.4874E-01   2.2355E+01  0.000E+00  0.000E+00  0.000E+00  1.04387E+03  1.146E+00  1.200E+01  6.000E-02  1.382E+00
   1   10    7     6     2    2.2355E+01  2.4828E-01   2.2107E+01  0.000E+00  0.000E+00  0.000E+00  1.03932E+03  1.138E+00  1.200E+01  6.000E-02  1.379E+00
   1   11    7     6     3    2.2107E+01  2.4782E-01   2.1859E+01  0.000E+00  0.000E+00  0.000E+00  1.03477E+03  1.130E+00  1.200E+01  6.000E-02  1.377E+00
   1   12    7     6     4    2.1859E+01  2.4736E-01   2.1611E+01  0.000E+00  0.000E+00  0.000E+00  1.03021E+03  1.123E+00  1.200E+01  6.000E-02  1.374E+00
   1   13    7     6     5    2.1611E+01  2.1108E-03   2.1609E+01  0.000E+00  0.000E+00  0.000E+00  1.02703E+03  1.119E+00  1.200E+01  2.400E-02  2.932E-02
   1   14    9     7     1    1.5000E+02  1.3491E+00   1.4865E+02  0.000E+00  0.000E+00  0.000E+00  1.03987E+03  2.288E+00  5.529E+01  5.593E-01  8.040E-01
   1   13    8     7     2    1.4865E+02  1.8772E+00   1.4677E+02  0.000E+00  0.000E+00  0.000E+00  1.03478E+03  2.279E+00  5.526E+01  6.148E-01  1.018E+00
   1   13    7     7     3    1.4677E+02  1.5353E+00   1.4524E+02  0.000E+00  0.000E+00  0.000E+00  1.02969E+03  2.270E+00  5.521E+01  5.584E-01  9.165E-01
   1   13    6     8     1    1.6685E+02  9.6701E-01   1.6588E+02  0.000E+00  0.000E+00  0.000E+00  1.02480E+03  2.928E+00  4.246E+01  4.327E-01  7.450E-01
   1   13    5     8     2    1.6588E+02  2.1736E-01   1.6566E+02  0.000E+00  0.000E+00  0.000E+00  1.01855E+03  2.924E+00  4.240E+01  4.321E-01  1.677E-01
   1   13    4     8     3    1.6566E+02 -2.2980E+00   1.6796E+02  0.000E+00  0.000E+00  0.000E+00  1.01231E+03  2.931E+00  4.250E+01  4.331E+00 -1.769E-01
   1   13    3     8     4    1.6796E+02 -3.5777E+00   1.7154E+02  0.000E+00  0.000E+00  0.000E+00  1.00608E+03  2.951E+00  4.278E+01  4.360E+00 -2.735E-01
   1   13    2     8     5    1.7154E+02 -2.5619E+00   1.7410E+02  0.000E+00  0.000E+00  0.000E+00  9.99845E+02  2.970E+00  4.307E+01  4.389E+00 -1.946E-01
   1   13    1     8     6    1.7410E+02 -1.9840E+00   1.7608E+02  0.000E+00  0.000E+00  0.000E+00  9.94860E+02  2.985E+00  4.328E+01  2.646E+00 -2.499E-01
   1    8    6     9     1    0.0000E+00  0.0000E+00   0.0000E+00  0.000E+00  0.000E+00  0.000E+00  1.07875E+03  0.000E+00  4.000E+00  0.000E+00  1.000E+00
   1    8    5     9     2    0.0000E+00  0.0000E+00   0.0000E+00  0.000E+00  0.000E+00  0.000E+00  1.07825E+03  0.000E+00  4.000E+00  0.000E+00  1.000E+00





UNSATURATED ZONE PACKAGE VOLUMETRIC BUDGET FOR  TIME STEP    30 STRESS PERIOD   37
  ------------------------------------------------------------------------------



     CUMULATIVE VOLUMES      L**3       RATES FOR THIS TIME STEP      L**3/T
     ------------------                 ------------------------

           IN:                                      IN:
           ---                                      ---
        INFILTRATION =  1546681962.1155          INFILTRATION =           0.8475

          OUT:                                     OUT:
          ----                                     ----
              UZF ET =  1284124852.3665                UZF ET =           0.7500
        UZF RECHARGE =    81203290.6307          UZF RECHARGE =       0.0000E+00

            IN - OUT =   181353819.1184              IN - OUT =       9.7500E-02

          STORAGE:                                 STORAGE:
          --------                                 --------
      STORAGE CHANGE =   181354977.4095        STORAGE CHANGE =       9.7500E-02

 PERCENT DISCREPANCY IS DIFFERENCE BETWEEN IN-OUT MINUS CHANGE IN STORAGE
 DIVIDED BY THE AVERAGE OF IN AND OUT TIMES 100

 PERCENT DISCREPANCY =          -0.00     PERCENT DISCREPANCY =           0.00






1
  VOLUMETRIC BUDGET FOR AGRICULTURAL FIELDS AT  END OF TIME STEP   30, STRESS PERIOD  37
  ------------------------------------------------------------------------------

     CUMULATIVE VOLUMES      L**3       RATES FOR THIS TIME STEP      L**3/T
     ------------------                 ------------------------

           IN:                                      IN:
           ---                                      ---
               AG WELLS  =   541941056.0000                 AG WELLS  =           0.0000
      DIVERSION SEGMENTS =   924417408.0000        DIVERSION SEGMENTS =           0.0000
           GW IRRIGATION =           0.0000             GW IRRIGATION =           0.0000
           SW IRRIGATION =           0.0000             SW IRRIGATION =           0.0000
        SYSTEM LOSSES GW =           0.0000          SYSTEM LOSSES GW =           0.0000
        SYSTEM LOSSES SW =           0.0000          SYSTEM LOSSES SW =           0.0000

                TOTAL IN =  1466358528.0000                  TOTAL IN =           0.0000

          OUT:                                     OUT:
          ----                                     ----
               AG WELLS  =           0.0000                 AG WELLS  =           0.0000
      DIVERSION SEGMENTS =           0.0000        DIVERSION SEGMENTS =           0.0000
           GW IRRIGATION =   541941056.0000             GW IRRIGATION =           0.0000
           SW IRRIGATION =   924435904.0000             SW IRRIGATION =           0.0000
        SYSTEM LOSSES GW =           0.0000          SYSTEM LOSSES GW =           0.0000
        SYSTEM LOSSES SW =           0.0000          SYSTEM LOSSES SW =           0.0000

               TOTAL OUT =  1466376960.0000                 TOTAL OUT =           0.0000

                IN - OUT =      -18432.0000                  IN - OUT =           0.0000

     PERCENT DISCREPANCY =          -0.00         PERCENT DISCREPANCY =           0.00



1
  VOLUMETRIC BUDGET FOR ENTIRE MODEL AT END OF TIME STEP   30, STRESS PERIOD  37
  ------------------------------------------------------------------------------

     CUMULATIVE VOLUMES      L**3       RATES FOR THIS TIME STEP      L**3/T
     ------------------                 ------------------------

           IN:                                      IN:
           ---                                      ---
             STORAGE     =   902189696.0000               STORAGE     =           2.4843
       CONSTANT HEAD     =           0.0000         CONSTANT HEAD     =           0.0000
     HEAD DEP BOUNDS     =    27100754.0000       HEAD DEP BOUNDS     =           0.2867
      STREAM LEAKAGE     =  1139053056.0000        STREAM LEAKAGE     =          11.5862
        UZF RECHARGE     =    81203288.0000          UZF RECHARGE     =           0.0000
               GW ET     =           0.0000                 GW ET     =           0.0000
     SURFACE LEAKAGE     =           0.0000       SURFACE LEAKAGE     =           0.0000
           AG WELLS      =           0.0000             AG WELLS      =           0.0000

                TOTAL IN =  2149546752.0000                  TOTAL IN =          14.3572

          OUT:                                     OUT:
          ----                                     ----
             STORAGE     =   566214784.0000               STORAGE     =           3.6468
       CONSTANT HEAD     =           0.0000         CONSTANT HEAD     =           0.0000
     HEAD DEP BOUNDS     =    27548008.0000       HEAD DEP BOUNDS     =           0.2892
      STREAM LEAKAGE     =  1011177792.0000        STREAM LEAKAGE     =          10.4216
        UZF RECHARGE     =           0.0000          UZF RECHARGE     =           0.0000
               GW ET     =     2673563.7500                 GW ET     =           0.0000
     SURFACE LEAKAGE     =           0.0000       SURFACE LEAKAGE     =           0.0000
           AG WELLS      =   541941056.0000             AG WELLS      =           0.0000

               TOTAL OUT =  2149555200.0000                 TOTAL OUT =          14.3575

                IN - OUT =       -8448.0000                  IN - OUT =      -3.2806E-04

     PERCENT DISCREPANCY =          -0.00         PERCENT DISCREPANCY =          -0.00






         TIME SUMMARY AT END OF TIME STEP   30 IN STRESS PERIOD   37
                    SECONDS     MINUTES      HOURS       DAYS        YEARS
                    -----------------------------------------------------------
   TIME STEP LENGTH  87667.      1461.1      24.352      1.0147     2.77799E-03
 STRESS PERIOD TIME 2.63000E+06  43833.      730.56      30.440     8.33397E-02
         TOTAL TIME 9.47660E+07 1.57943E+06  26324.      1096.8      3.0030    
1
1
                            STRESS PERIOD NO.   38, LENGTH =   2630000.    
                            -----------------------------------------------

                              NUMBER OF TIME STEPS =    30

                               MULTIPLIER FOR DELT =     1.000

                            INITIAL TIME STEP SIZE =   87666.66    

 REUSING NON-PARAMETER GHB CELLS FROM LAST STRESS PERIOD

      2 GHB CELLS

 REUSING STREAM SEGMENT DATA FROM LAST STRESS PERIOD



            AREAL INFILTRATION RATE
 READING ON UNIT   19 WITH FORMAT: (FREE)              

            1           2           3           4           5           6           7           8           9          10
 ........................................................................................................................
   1   1.0000E-10  2.0000E-10   0.000       0.000       0.000       0.000       0.000       0.000       0.000       0.000    
   2   2.0000E-10  1.0000E-10  2.0000E-10   0.000       0.000      8.0000E-10  8.0000E-10  5.0000E-10   0.000       0.000    
   3    0.000      5.0000E-10  1.0000E-10  1.0000E-10  8.0000E-10  8.0000E-10  5.0000E-10  5.0000E-10   0.000       0.000    
   4   8.0000E-10  5.0000E-10  1.0000E-10  1.0000E-10  1.0000E-10  1.0000E-10  1.0000E-10  1.0000E-10  2.0000E-10   0.000    
   5   8.0000E-10  5.0000E-10  1.0000E-10  1.0000E-10  1.0000E-10  1.0000E-10  1.0000E-10  1.0000E-10  1.0000E-10  1.0000E-10
   6   8.0000E-10  5.0000E-10  5.0000E-10  2.0000E-10  2.0000E-10  1.0000E-10  1.0000E-10  1.0000E-10  1.0000E-10  5.0000E-10
   7   8.0000E-10  5.0000E-10  5.0000E-10  2.0000E-10  2.0000E-10  1.0000E-10  1.0000E-10  2.0000E-10  2.0000E-10   0.000    
   8    0.000      5.0000E-10  5.0000E-10  2.0000E-10  2.0000E-10  1.0000E-10  1.0000E-10  2.0000E-10  5.0000E-10   0.000    
   9    0.000      5.0000E-10  5.0000E-10  2.0000E-10  2.0000E-10  1.0000E-10  1.0000E-10  2.0000E-10  5.0000E-10   0.000    
  10    0.000      5.0000E-10  5.0000E-10  2.0000E-10  2.0000E-10  1.0000E-10  1.0000E-10  2.0000E-10  5.0000E-10  8.0000E-10
  11    0.000      1.0000E-10  1.0000E-10  1.0000E-10  1.0000E-10  1.0000E-10  1.0000E-10  2.0000E-10  5.0000E-10   0.000    
  12   1.0000E-10  1.0000E-10  1.0000E-10  1.0000E-10  1.0000E-10  1.0000E-10  1.0000E-10  1.0000E-10  2.0000E-10   0.000    
  13   1.0000E-10  1.0000E-10  2.0000E-10  2.0000E-10  2.0000E-10  2.0000E-10  2.0000E-10  1.0000E-10  1.0000E-10   0.000    
  14    0.000      2.0000E-10  5.0000E-10  5.0000E-10  5.0000E-10  5.0000E-10  5.0000E-10  2.0000E-10  1.0000E-10   0.000    
  15    0.000       0.000      8.0000E-10  8.0000E-10  8.0000E-10  8.0000E-10   0.000       0.000       0.000       0.000    

                  ET RATE =  5.000000E-10

 USING ET EXTINCTION DEPTH FROM PREVIOUS STRESS PERIOD. CURRENT PERIOD IS:      38

 USING EXTINCTION WATER CONTENT FROM PREVIOUS STRESS PERIOD. CURRENT PERIOD IS:      38

 USING AIR ENTRY PRESSURE FROM PREVIOUS STRESS PERIOD. CURRENT PERIOD IS:      38

 USING ROOT PRESSURE HEAD FROM PREVIOUS STRESS PERIOD. CURRENT PERIOD IS:      38

 USING ROOT ACTIVITY FROM PREVIOUS STRESS PERIOD. CURRENT PERIOD IS:      38

 PROCESSING AG STRESS PERIOD DATA

 READING AG STRESS PERIOD DATA

 READING IRRIGATION SEGMENT

 READING IRRIGATION WELL

 READING SUPPLEMENTAL WELL

 END PROCESSING AG STRESS PERIOD DATA OPTIONS
 
 SOLVING FOR HEAD 
                                                   Max.-Head-Change                         Max.-Flux-Residual
  Residual-Control   Outer-Iter.   Inner-Iter.     Column Row Layer    Maximum-Head-Change  Column Row Layer    Maximum-Flux-Residual          L2-NORM 
          0                 1           2             3    7     1       0.7366145290E-02       4    7    1        -0.2382262224E+00      0.8364032741E+00
          0                 2           2             3    7     1      -0.7165247573E-03       4    7    1         0.2382254132E-01      0.8363858683E-01
          0                 3           1             3    7     1       0.4879270844E-04       4    7    1        -0.1667579372E-02      0.5854549612E-02

    ------------------------------------------------
       NWT REQUIRED            3 OUTER ITERATIONS 
       AND A TOTAL OF          5 INNER ITERATIONS.
    ------------------------------------------------

 NO OUTPUT CONTROL FOR STRESS PERIOD   38   TIME STEP    1
 
 SOLVING FOR HEAD 
                                                   Max.-Head-Change                         Max.-Flux-Residual
  Residual-Control   Outer-Iter.   Inner-Iter.     Column Row Layer    Maximum-Head-Change  Column Row Layer    Maximum-Flux-Residual          L2-NORM 
          0                 1           2             3    7     1       0.7217756634E-02       4    7    1        -0.2304326956E+00      0.8240566914E+00
          0                 2           2             3    7     1      -0.7020906165E-03       4    7    1         0.2304319315E-01      0.8238751768E-01
          0                 3           1             3    7     1       0.4780979700E-04       4    7    1        -0.1613024924E-02      0.5765564163E-02

    ------------------------------------------------
       NWT REQUIRED            3 OUTER ITERATIONS 
       AND A TOTAL OF          5 INNER ITERATIONS.
    ------------------------------------------------

 NO OUTPUT CONTROL FOR STRESS PERIOD   38   TIME STEP    2
 
 SOLVING FOR HEAD 
                                                   Max.-Head-Change                         Max.-Flux-Residual
  Residual-Control   Outer-Iter.   Inner-Iter.     Column Row Layer    Maximum-Head-Change  Column Row Layer    Maximum-Flux-Residual          L2-NORM 
          0                 1           2             3    7     1       0.7073502708E-02       4    7    1        -0.2228101032E+00      0.8172900913E+00
          0                 2           2             3    7     1      -0.6880586700E-03       4    7    1         0.2228093823E-01      0.8166994856E-01
          0                 3           1             3    7     1       0.4685427411E-04       4    7    1        -0.1559667037E-02      0.5712005070E-02

    ------------------------------------------------
       NWT REQUIRED            3 OUTER ITERATIONS 
       AND A TOTAL OF          5 INNER ITERATIONS.
    ------------------------------------------------

 NO OUTPUT CONTROL FOR STRESS PERIOD   38   TIME STEP    3
 
 SOLVING FOR HEAD 
                                                   Max.-Head-Change                         Max.-Flux-Residual
  Residual-Control   Outer-Iter.   Inner-Iter.     Column Row Layer    Maximum-Head-Change  Column Row Layer    Maximum-Flux-Residual          L2-NORM 
          0                 1           2             3    7     1       0.6932776798E-02       4    7    1        -0.2153579732E+00      0.8010642309E+00
          0                 2           2             3    7     1      -0.6743699026E-03       4    7    1         0.2153572938E-01      0.8005842491E-01
          0                 3           1             3    7     1       0.4592211986E-04       4    7    1        -0.1507502330E-02      0.5599911827E-02

    ------------------------------------------------
       NWT REQUIRED            3 OUTER ITERATIONS 
       AND A TOTAL OF          5 INNER ITERATIONS.
    ------------------------------------------------

 NO OUTPUT CONTROL FOR STRESS PERIOD   38   TIME STEP    4
 
 SOLVING FOR HEAD 
                                                   Max.-Head-Change                         Max.-Flux-Residual
  Residual-Control   Outer-Iter.   Inner-Iter.     Column Row Layer    Maximum-Head-Change  Column Row Layer    Maximum-Flux-Residual          L2-NORM 
          0                 1           2             3    7     1       0.6795724285E-02       4    7    1        -0.2080596026E+00      0.7855304156E+00
          0                 2           2             3    7     1      -0.6610384548E-03       4    7    1         0.2080589628E-01      0.7851023740E-01
          0                 3           1             3    7     1       0.4501429776E-04       4    7    1        -0.1456413969E-02      0.5491832303E-02

    ------------------------------------------------
       NWT REQUIRED            3 OUTER ITERATIONS 
       AND A TOTAL OF          5 INNER ITERATIONS.
    ------------------------------------------------

 NO OUTPUT CONTROL FOR STRESS PERIOD   38   TIME STEP    5
 
 SOLVING FOR HEAD 
                                                   Max.-Head-Change                         Max.-Flux-Residual
  Residual-Control   Outer-Iter.   Inner-Iter.     Column Row Layer    Maximum-Head-Change  Column Row Layer    Maximum-Flux-Residual          L2-NORM 
          0                 1           2             3    7     1       0.6662477761E-02       4    7    1        -0.2009436451E+00      0.7706463529E+00
          0                 2           2             3    7     1      -0.6480772244E-03       4    7    1         0.2009430430E-01      0.7702678192E-01
          0                 3           1             3    7     1       0.4413168597E-04       4    7    1        -0.1406602484E-02      0.5388406510E-02

    ------------------------------------------------
       NWT REQUIRED            3 OUTER ITERATIONS 
       AND A TOTAL OF          5 INNER ITERATIONS.
    ------------------------------------------------

 NO OUTPUT CONTROL FOR STRESS PERIOD   38   TIME STEP    6
 
 SOLVING FOR HEAD 
                                                   Max.-Head-Change                         Max.-Flux-Residual
  Residual-Control   Outer-Iter.   Inner-Iter.     Column Row Layer    Maximum-Head-Change  Column Row Layer    Maximum-Flux-Residual          L2-NORM 
          0                 1           2             3    7     1       0.6532439630E-02       4    7    1        -0.1939920555E+00      0.7563857796E+00
          0                 2           2             3    7     1      -0.6354280812E-03       4    7    1         0.1939914892E-01      0.7560479936E-01
          0                 3           1             3    7     1       0.4327032614E-04       4    7    1        -0.1357941545E-02      0.5289151336E-02

    ------------------------------------------------
       NWT REQUIRED            3 OUTER ITERATIONS 
       AND A TOTAL OF          5 INNER ITERATIONS.
    ------------------------------------------------

 NO OUTPUT CONTROL FOR STRESS PERIOD   38   TIME STEP    7
 
 SOLVING FOR HEAD 
                                                   Max.-Head-Change                         Max.-Flux-Residual
  Residual-Control   Outer-Iter.   Inner-Iter.     Column Row Layer    Maximum-Head-Change  Column Row Layer    Maximum-Flux-Residual          L2-NORM 
          0                 1           2             3    7     1       0.6405758514E-02       4    7    1        -0.1872030450E+00      0.7427038835E+00
          0                 2           2             3    7     1      -0.6231054838E-03       4    7    1         0.1872025129E-01      0.7423975784E-01
          0                 3           1             3    7     1       0.4243120342E-04       4    7    1        -0.1310418646E-02      0.5194331954E-02

    ------------------------------------------------
       NWT REQUIRED            3 OUTER ITERATIONS 
       AND A TOTAL OF          5 INNER ITERATIONS.
    ------------------------------------------------

 NO OUTPUT CONTROL FOR STRESS PERIOD   38   TIME STEP    8
 
 SOLVING FOR HEAD 
                                                   Max.-Head-Change                         Max.-Flux-Residual
  Residual-Control   Outer-Iter.   Inner-Iter.     Column Row Layer    Maximum-Head-Change  Column Row Layer    Maximum-Flux-Residual          L2-NORM 
          0                 1           2             3    7     1       0.6282578967E-02       4    7    1        -0.1805742453E+00      0.7295693236E+00
          0                 2           2             3    7     1      -0.6111234913E-03       4    7    1         0.1805737457E-01      0.7293063192E-01
          0                 3           1             3    7     1       0.4161527386E-04       4    7    1        -0.1264017228E-02      0.5102749173E-02

    ------------------------------------------------
       NWT REQUIRED            3 OUTER ITERATIONS 
       AND A TOTAL OF          5 INNER ITERATIONS.
    ------------------------------------------------

 NO OUTPUT CONTROL FOR STRESS PERIOD   38   TIME STEP    9
 
 SOLVING FOR HEAD 
                                                   Max.-Head-Change                         Max.-Flux-Residual
  Residual-Control   Outer-Iter.   Inner-Iter.     Column Row Layer    Maximum-Head-Change  Column Row Layer    Maximum-Flux-Residual          L2-NORM 
          0                 1           2             3    7     1       0.6162309696E-02       4    7    1        -0.1741028798E+00      0.7169552285E+00
          0                 2           2             3    7     1      -0.5994245888E-03       4    7    1         0.1741024109E-01      0.7167214117E-01
          0                 3           1             3    7     1       0.4081862239E-04       4    7    1        -0.1218717850E-02      0.5015023165E-02

    ------------------------------------------------
       NWT REQUIRED            3 OUTER ITERATIONS 
       AND A TOTAL OF          5 INNER ITERATIONS.
    ------------------------------------------------

 NO OUTPUT CONTROL FOR STRESS PERIOD   38   TIME STEP   10
 
 SOLVING FOR HEAD 
                                                   Max.-Head-Change                         Max.-Flux-Residual
  Residual-Control   Outer-Iter.   Inner-Iter.     Column Row Layer    Maximum-Head-Change  Column Row Layer    Maximum-Flux-Residual          L2-NORM 
          0                 1           2             3    7     1       0.6045349816E-02       4    7    1        -0.1677866297E+00      0.7048382733E+00
          0                 2           2             3    7     1      -0.5880475988E-03       4    7    1         0.1677861902E-01      0.7046294898E-01
          0                 3           1             3    7     1       0.4004389149E-04       4    7    1        -0.1174504240E-02      0.4930484151E-02

    ------------------------------------------------
       NWT REQUIRED            3 OUTER ITERATIONS 
       AND A TOTAL OF          5 INNER ITERATIONS.
    ------------------------------------------------

 NO OUTPUT CONTROL FOR STRESS PERIOD   38   TIME STEP   11
 
 SOLVING FOR HEAD 
                                                   Max.-Head-Change                         Max.-Flux-Residual
  Residual-Control   Outer-Iter.   Inner-Iter.     Column Row Layer    Maximum-Head-Change  Column Row Layer    Maximum-Flux-Residual          L2-NORM 
          0                 1           2             3    7     1       0.5931358461E-02       4    7    1        -0.1616225087E+00      0.6931817554E+00
          0                 2           2             3    7     1      -0.5769593636E-03       4    7    1         0.1616220969E-01      0.6929942618E-01
          0                 3           1             3    7     1       0.3928882364E-04       4    7    1        -0.1131355561E-02      0.4849226625E-02

    ------------------------------------------------
       NWT REQUIRED            3 OUTER ITERATIONS 
       AND A TOTAL OF          5 INNER ITERATIONS.
    ------------------------------------------------

 NO OUTPUT CONTROL FOR STRESS PERIOD   38   TIME STEP   12
 
 SOLVING FOR HEAD 
                                                   Max.-Head-Change                         Max.-Flux-Residual
  Residual-Control   Outer-Iter.   Inner-Iter.     Column Row Layer    Maximum-Head-Change  Column Row Layer    Maximum-Flux-Residual          L2-NORM 
          0                 1           2             3    7     1       0.5820493537E-02       4    7    1        -0.1556079076E+00      0.6819810008E+00
          0                 2           2             3    7     1      -0.5661752444E-03       4    7    1         0.1556075222E-01      0.6818131501E-01
          0                 3           1             3    7     1       0.3855446553E-04       4    7    1        -0.1089253486E-02      0.4771089502E-02

    ------------------------------------------------
       NWT REQUIRED            3 OUTER ITERATIONS 
       AND A TOTAL OF          5 INNER ITERATIONS.
    ------------------------------------------------

 NO OUTPUT CONTROL FOR STRESS PERIOD   38   TIME STEP   13
 
 SOLVING FOR HEAD 
                                                   Max.-Head-Change                         Max.-Flux-Residual
  Residual-Control   Outer-Iter.   Inner-Iter.     Column Row Layer    Maximum-Head-Change  Column Row Layer    Maximum-Flux-Residual          L2-NORM 
          0                 1           2             3    7     1       0.5712165820E-02       3    7    1         0.1514530935E+00      0.6711983652E+00
          0                 2           2             3    7     1      -0.5556379256E-03       3    7    1        -0.1514530786E-01      0.6710483279E-01
          0                 3           1             3    7     1       0.3783691311E-04       3    7    1         0.1060172029E-02      0.4695891576E-02

    ------------------------------------------------
       NWT REQUIRED            3 OUTER ITERATIONS 
       AND A TOTAL OF          5 INNER ITERATIONS.
    ------------------------------------------------

 NO OUTPUT CONTROL FOR STRESS PERIOD   38   TIME STEP   14
 
 SOLVING FOR HEAD 
                                                   Max.-Head-Change                         Max.-Flux-Residual
  Residual-Control   Outer-Iter.   Inner-Iter.     Column Row Layer    Maximum-Head-Change  Column Row Layer    Maximum-Flux-Residual          L2-NORM 
          0                 1           2             3    7     1       0.5607036304E-02       3    7    1         0.1486447673E+00      0.6608196260E+00
          0                 2           2             3    7     1      -0.5454117033E-03       3    7    1        -0.1486447568E-01      0.6606846127E-01
          0                 3           1             3    7     1       0.3714054556E-04       3    7    1         0.1040513760E-02      0.4623560213E-02

    ------------------------------------------------
       NWT REQUIRED            3 OUTER ITERATIONS 
       AND A TOTAL OF          5 INNER ITERATIONS.
    ------------------------------------------------

 NO OUTPUT CONTROL FOR STRESS PERIOD   38   TIME STEP   15
 
 SOLVING FOR HEAD 
                                                   Max.-Head-Change                         Max.-Flux-Residual
  Residual-Control   Outer-Iter.   Inner-Iter.     Column Row Layer    Maximum-Head-Change  Column Row Layer    Maximum-Flux-Residual          L2-NORM 
          0                 1           2             3    7     1       0.5504030088E-02       3    7    1         0.1458933133E+00      0.6508214444E+00
          0                 2           2             3    7     1      -0.5353920210E-03       3    7    1        -0.1458933066E-01      0.6507016305E-01
          0                 3           1             3    7     1       0.3645824468E-04       3    7    1         0.1021253589E-02      0.4553718428E-02

    ------------------------------------------------
       NWT REQUIRED            3 OUTER ITERATIONS 
       AND A TOTAL OF          5 INNER ITERATIONS.
    ------------------------------------------------

 NO OUTPUT CONTROL FOR STRESS PERIOD   38   TIME STEP   16
 
 SOLVING FOR HEAD 
                                                   Max.-Head-Change                         Max.-Flux-Residual
  Residual-Control   Outer-Iter.   Inner-Iter.     Column Row Layer    Maximum-Head-Change  Column Row Layer    Maximum-Flux-Residual          L2-NORM 
          0                 1           2             3    7     1       0.5404055943E-02       3    7    1         0.1432229433E+00      0.6411889227E+00
          0                 2           2             3    7     1      -0.5256672298E-03       3    7    1        -0.1432229405E-01      0.6410935556E-01
          0                 3           1             3    7     1       0.3579602056E-04       3    7    1         0.1002561027E-02      0.4486720325E-02

    ------------------------------------------------
       NWT REQUIRED            3 OUTER ITERATIONS 
       AND A TOTAL OF          5 INNER ITERATIONS.
    ------------------------------------------------

 NO OUTPUT CONTROL FOR STRESS PERIOD   38   TIME STEP   17
 
 SOLVING FOR HEAD 
                                                   Max.-Head-Change                         Max.-Flux-Residual
  Residual-Control   Outer-Iter.   Inner-Iter.     Column Row Layer    Maximum-Head-Change  Column Row Layer    Maximum-Flux-Residual          L2-NORM 
          0                 1           2             3    7     1       0.5307022567E-02       3    7    1         0.1406311790E+00      0.6319143996E+00
          0                 2           2             3    7     1      -0.5162285808E-03       3    7    1        -0.1406311797E-01      0.6318158610E-01
          0                 3           1             3    7     1       0.3515328341E-04       3    7    1         0.9844186839E-03      0.4421722578E-02

    ------------------------------------------------
       NWT REQUIRED            3 OUTER ITERATIONS 
       AND A TOTAL OF          5 INNER ITERATIONS.
    ------------------------------------------------

 NO OUTPUT CONTROL FOR STRESS PERIOD   38   TIME STEP   18
 
 SOLVING FOR HEAD 
                                                   Max.-Head-Change                         Max.-Flux-Residual
  Residual-Control   Outer-Iter.   Inner-Iter.     Column Row Layer    Maximum-Head-Change  Column Row Layer    Maximum-Flux-Residual          L2-NORM 
          0                 1           2             3    7     1       0.5211868393E-02       3    7    1         0.1380896098E+00      0.6229731127E+00
          0                 2           2             3    7     1      -0.5069726838E-03       3    7    1        -0.1380896138E-01      0.6228846176E-01
          0                 3           1             3    7     1       0.3452299053E-04       3    7    1         0.9666277050E-03      0.4359350034E-02

    ------------------------------------------------
       NWT REQUIRED            3 OUTER ITERATIONS 
       AND A TOTAL OF          5 INNER ITERATIONS.
    ------------------------------------------------

 NO OUTPUT CONTROL FOR STRESS PERIOD   38   TIME STEP   19
 
 SOLVING FOR HEAD 
                                                   Max.-Head-Change                         Max.-Flux-Residual
  Residual-Control   Outer-Iter.   Inner-Iter.     Column Row Layer    Maximum-Head-Change  Column Row Layer    Maximum-Flux-Residual          L2-NORM 
          0                 1           2             3    7     1       0.5119508180E-02       3    7    1         0.1356227988E+00      0.6143523215E+00
          0                 2           2             3    7     1      -0.4979885625E-03       3    7    1        -0.1356228058E-01      0.6142719296E-01
          0                 3           1             3    7     1       0.3391120574E-04       3    7    1         0.9493600436E-03      0.4299160174E-02

    ------------------------------------------------
       NWT REQUIRED            3 OUTER ITERATIONS 
       AND A TOTAL OF          5 INNER ITERATIONS.
    ------------------------------------------------

 NO OUTPUT CONTROL FOR STRESS PERIOD   38   TIME STEP   20
 
 SOLVING FOR HEAD 
                                                   Max.-Head-Change                         Max.-Flux-Residual
  Residual-Control   Outer-Iter.   Inner-Iter.     Column Row Layer    Maximum-Head-Change  Column Row Layer    Maximum-Flux-Residual          L2-NORM 
          0                 1           2             3    7     1       0.5029369291E-02       3    7    1         0.1332153991E+00      0.6060454652E+00
          0                 2           2             3    7     1      -0.4892205154E-03       3    7    1        -0.1332154088E-01      0.6059728356E-01
          0                 3           1             3    7     1       0.3331413470E-04       3    7    1         0.9325082652E-03      0.4241151801E-02

    ------------------------------------------------
       NWT REQUIRED            3 OUTER ITERATIONS 
       AND A TOTAL OF          5 INNER ITERATIONS.
    ------------------------------------------------

 NO OUTPUT CONTROL FOR STRESS PERIOD   38   TIME STEP   21
 
 SOLVING FOR HEAD 
                                                   Max.-Head-Change                         Max.-Flux-Residual
  Residual-Control   Outer-Iter.   Inner-Iter.     Column Row Layer    Maximum-Head-Change  Column Row Layer    Maximum-Flux-Residual          L2-NORM 
          0                 1           2             3    7     1       0.4941870128E-02       3    7    1         0.1308786060E+00      0.5980304394E+00
          0                 2           2             3    7     1      -0.4807092398E-03       3    7    1        -0.1308786184E-01      0.5979643633E-01
          0                 3           1             3    7     1       0.3273454765E-04       3    7    1         0.9161506996E-03      0.4185116179E-02

    ------------------------------------------------
       NWT REQUIRED            3 OUTER ITERATIONS 
       AND A TOTAL OF          5 INNER ITERATIONS.
    ------------------------------------------------

 NO OUTPUT CONTROL FOR STRESS PERIOD   38   TIME STEP   22
 
 SOLVING FOR HEAD 
                                                   Max.-Head-Change                         Max.-Flux-Residual
  Residual-Control   Outer-Iter.   Inner-Iter.     Column Row Layer    Maximum-Head-Change  Column Row Layer    Maximum-Flux-Residual          L2-NORM 
          0                 1           2             3    7     1       0.4856448870E-02       3    7    1         0.1285972255E+00      0.5902998429E+00
          0                 2           2             3    7     1      -0.4724000880E-03       3    7    1        -0.1285972402E-01      0.5902398944E-01
          0                 3           1             3    7     1       0.3216872529E-04       3    7    1         0.9001810552E-03      0.4131131328E-02

    ------------------------------------------------
       NWT REQUIRED            3 OUTER ITERATIONS 
       AND A TOTAL OF          5 INNER ITERATIONS.
    ------------------------------------------------

 NO OUTPUT CONTROL FOR STRESS PERIOD   38   TIME STEP   23
 
 SOLVING FOR HEAD 
                                                   Max.-Head-Change                         Max.-Flux-Residual
  Residual-Control   Outer-Iter.   Inner-Iter.     Column Row Layer    Maximum-Head-Change  Column Row Layer    Maximum-Flux-Residual          L2-NORM 
          0                 1           2             3    7     1       0.4773031253E-02       3    7    1         0.1263697131E+00      0.5828435533E+00
          0                 2           2             3    7     1      -0.4642858356E-03       3    7    1        -0.1263697302E-01      0.5828640256E-01
          0                 3           1             3    7     1       0.3161617485E-04       3    7    1         0.8845884757E-03      0.4079561986E-02

    ------------------------------------------------
       NWT REQUIRED            3 OUTER ITERATIONS 
       AND A TOTAL OF          5 INNER ITERATIONS.
    ------------------------------------------------

 NO OUTPUT CONTROL FOR STRESS PERIOD   38   TIME STEP   24
 
 SOLVING FOR HEAD 
                                                   Max.-Head-Change                         Max.-Flux-Residual
  Residual-Control   Outer-Iter.   Inner-Iter.     Column Row Layer    Maximum-Head-Change  Column Row Layer    Maximum-Flux-Residual          L2-NORM 
          0                 1           2             3    7     1       0.4691562041E-02       3    7    1         0.1241941434E+00      0.5756278722E+00
          0                 2           2             3    7     1      -0.4563611085E-03       3    7    1        -0.1241941624E-01      0.5755799010E-01
          0                 3           1             3    7     1       0.3107653021E-04       3    7    1         0.8693594899E-03      0.4028809019E-02

    ------------------------------------------------
       NWT REQUIRED            3 OUTER ITERATIONS 
       AND A TOTAL OF          5 INNER ITERATIONS.
    ------------------------------------------------

 NO OUTPUT CONTROL FOR STRESS PERIOD   38   TIME STEP   25
 
 SOLVING FOR HEAD 
                                                   Max.-Head-Change                         Max.-Flux-Residual
  Residual-Control   Outer-Iter.   Inner-Iter.     Column Row Layer    Maximum-Head-Change  Column Row Layer    Maximum-Flux-Residual          L2-NORM 
          0                 1           2             3    7     1       0.4612465486E-02       3    7    1         0.1220821059E+00      0.5686729504E+00
          0                 2           2             3    7     1      -0.4486671763E-03       3    7    1        -0.1220821268E-01      0.5686275086E-01
          0                 3           1             3    7     1       0.3055260209E-04       3    7    1         0.8545752390E-03      0.3979993930E-02

    ------------------------------------------------
       NWT REQUIRED            3 OUTER ITERATIONS 
       AND A TOTAL OF          5 INNER ITERATIONS.
    ------------------------------------------------

 NO OUTPUT CONTROL FOR STRESS PERIOD   38   TIME STEP   26
 
 SOLVING FOR HEAD 
                                                   Max.-Head-Change                         Max.-Flux-Residual
  Residual-Control   Outer-Iter.   Inner-Iter.     Column Row Layer    Maximum-Head-Change  Column Row Layer    Maximum-Flux-Residual          L2-NORM 
          0                 1           2             3    7     1       0.4535673320E-02       3    7    1         0.1200315780E+00      0.5619661814E+00
          0                 2           2             3    7     1      -0.4411973982E-03       3    7    1        -0.1200316008E-01      0.5619245923E-01
          0                 3           1             3    7     1       0.3004393798E-04       3    7    1         0.8402215525E-03      0.3933131280E-02

    ------------------------------------------------
       NWT REQUIRED            3 OUTER ITERATIONS 
       AND A TOTAL OF          5 INNER ITERATIONS.
    ------------------------------------------------

 NO OUTPUT CONTROL FOR STRESS PERIOD   38   TIME STEP   27
 
 SOLVING FOR HEAD 
                                                   Max.-Head-Change                         Max.-Flux-Residual
  Residual-Control   Outer-Iter.   Inner-Iter.     Column Row Layer    Maximum-Head-Change  Column Row Layer    Maximum-Flux-Residual          L2-NORM 
          0                 1           2             3    7     1       0.4460131960E-02       3    7    1         0.1180147470E+00      0.5554809110E+00
          0                 2           2             3    7     1      -0.4338492875E-03       3    7    1        -0.1180147712E-01      0.5554426169E-01
          0                 3           1             3    7     1       0.2954355838E-04       3    7    1         0.8261037233E-03      0.3887754764E-02

    ------------------------------------------------
       NWT REQUIRED            3 OUTER ITERATIONS 
       AND A TOTAL OF          5 INNER ITERATIONS.
    ------------------------------------------------

 NO OUTPUT CONTROL FOR STRESS PERIOD   38   TIME STEP   28
 
 SOLVING FOR HEAD 
                                                   Max.-Head-Change                         Max.-Flux-Residual
  Residual-Control   Outer-Iter.   Inner-Iter.     Column Row Layer    Maximum-Head-Change  Column Row Layer    Maximum-Flux-Residual          L2-NORM 
          0                 1           2             3    7     1       0.4387272153E-02       3    7    1         0.1160694067E+00      0.5492250491E+00
          0                 2           2             3    7     1      -0.4267718466E-03       3    7    1        -0.1160694324E-01      0.5493306832E-01
          0                 3           1             3    7     1       0.2906161136E-04       3    7    1         0.8124863595E-03      0.3844960777E-02

    ------------------------------------------------
       NWT REQUIRED            3 OUTER ITERATIONS 
       AND A TOTAL OF          5 INNER ITERATIONS.
    ------------------------------------------------

 NO OUTPUT CONTROL FOR STRESS PERIOD   38   TIME STEP   29
 
 SOLVING FOR HEAD 
                                                   Max.-Head-Change                         Max.-Flux-Residual
  Residual-Control   Outer-Iter.   Inner-Iter.     Column Row Layer    Maximum-Head-Change  Column Row Layer    Maximum-Flux-Residual          L2-NORM 
          0                 1           2             3    7     1       0.4315484388E-02       3    7    1         0.1141542578E+00      0.5431586326E+00
          0                 2           2             3    7     1      -0.4197790329E-03       3    7    1        -0.1141542850E-01      0.5431258527E-01
          0                 3           1             3    7     1       0.2858542616E-04       3    7    1         0.7990803101E-03      0.3801590579E-02

    ------------------------------------------------
       NWT REQUIRED            3 OUTER ITERATIONS 
       AND A TOTAL OF          5 INNER ITERATIONS.
    ------------------------------------------------

 NO OUTPUT CONTROL FOR STRESS PERIOD   38   TIME STEP   30



 STREAM LISTING     PERIOD     38   STEP       30

 LAYER ROW COL. STREAM  RCH.  FLOW INTO     FLOW TO   FLOW OUT OF   OVRLND.     DIRECT     STREAM       STREAM     STREAM     STREAM   STREAMBED  STREAMBED
                SEG.NO.  NO.  STRM. RCH.    AQUIFER    STRM. RCH.    RUNOFF     PRECIP       ET          HEAD       DEPTH      WIDTH   CONDCTNC.   GRADIENT

   1    1    1     1     1    1.4250E+01  1.8168E-01   1.4068E+01  0.000E+00  0.000E+00  0.000E+00  1.09404E+03  9.953E-01  1.011E+01  4.547E-02  1.332E+00
   1    2    2     1     2    1.4068E+01  2.7999E-01   1.3788E+01  0.000E+00  0.000E+00  0.000E+00  1.08905E+03  9.906E-01  1.002E+01  7.016E-02  1.330E+00
   1    3    3     1     3    1.3788E+01  2.3744E-01   1.3550E+01  0.000E+00  0.000E+00  0.000E+00  1.08340E+03  9.852E-01  9.930E+00  5.958E-02  1.328E+00
   1    3    4     1     4    1.3550E+01  2.1755E-01   1.3333E+01  0.000E+00  0.000E+00  0.000E+00  1.07839E+03  9.805E-01  9.847E+00  5.465E-02  1.327E+00
   1    4    5     2     1    1.1333E+01  2.9214E-01   1.1041E+01  0.000E+00  0.000E+00  0.000E+00  1.07268E+03  7.454E-01  1.200E+01  7.800E-02  1.248E+00
   1    5    6     2     2    1.1041E+01  2.2410E-01   1.0817E+01  0.000E+00  0.000E+00  0.000E+00  1.06724E+03  7.350E-01  1.200E+01  6.000E-02  1.245E+00
   1    6    6     2     3    1.0817E+01  2.2356E-01   1.0593E+01  0.000E+00  0.000E+00  0.000E+00  1.06252E+03  7.259E-01  1.200E+01  6.000E-02  1.242E+00
   1    7    6     2     4    1.0593E+01  2.2301E-01   1.0370E+01  0.000E+00  0.000E+00  0.000E+00  1.05779E+03  7.168E-01  1.200E+01  6.000E-02  1.239E+00
   1    8    6     2     5    1.0370E+01  2.2246E-01   1.0148E+01  0.000E+00  0.000E+00  0.000E+00  1.05307E+03  7.076E-01  1.200E+01  6.000E-02  1.236E+00
   1    3    5     3     1    2.0000E+00  2.8252E-01   1.7175E+00  0.000E+00  0.000E+00  0.000E+00  1.07555E+03  1.909E+00  9.636E+00  7.227E-02  1.955E+00
   1    3    6     3     2    1.7175E+00  2.4905E-01   1.4684E+00  0.000E+00  0.000E+00  0.000E+00  1.07264E+03  1.727E+00  8.909E+00  6.682E-02  1.864E+00
   1    3    7     3     3    1.4684E+00  1.9718E-01   1.2712E+00  0.000E+00  0.000E+00  0.000E+00  1.06987E+03  1.555E+00  8.218E+00  5.547E-02  1.777E+00
   1    4    8     3     4    1.2712E+00  2.2567E-01   1.0456E+00  0.000E+00  0.000E+00  0.000E+00  1.06682E+03  1.364E+00  7.455E+00  6.709E-02  1.682E+00
   1    5    8     3     5    1.0456E+00  1.5790E-01   8.8768E-01  0.000E+00  0.000E+00  0.000E+00  1.06362E+03  1.164E+00  6.655E+00  4.991E-02  1.582E+00
   1    6    8     3     6    8.8768E-01  5.5980E-02   8.3170E-01  0.000E+00  0.000E+00  0.000E+00  1.06158E+03  1.036E+00  6.145E+00  1.844E-02  1.518E+00
   1    5   10     4     1    1.0000E+01  9.0919E-02   9.9091E+00  0.000E+00  0.000E+00  0.000E+00  1.07836E+03  6.368E-01  1.000E+01  2.500E-02  1.212E+00
   1    5    9     4     2    9.9091E+00  1.8158E-01   9.7275E+00  0.000E+00  0.000E+00  0.000E+00  1.07154E+03  6.315E-01  1.000E+01  5.000E-02  1.211E+00
   1    6    8     4     3    9.7275E+00  1.2689E-01   9.6006E+00  0.000E+00  0.000E+00  0.000E+00  1.06381E+03  6.256E-01  1.000E+01  3.500E-02  1.209E+00
   1    6    8     5     1    1.0432E+01  2.2686E-01   1.0205E+01  0.000E+00  0.000E+00  0.000E+00  1.05868E+03  6.790E-01  1.542E+01  6.166E-02  1.226E+00
   1    7    7     5     2    1.0205E+01  2.7894E-01   9.9265E+00  0.000E+00  0.000E+00  0.000E+00  1.05417E+03  6.732E-01  1.519E+01  7.594E-02  1.224E+00
   1    8    7     5     3    9.9265E+00  1.9221E-01   9.7343E+00  0.000E+00  0.000E+00  0.000E+00  1.04992E+03  6.676E-01  1.497E+01  5.241E-02  1.223E+00
   1    8    6     5     4    9.7343E+00  1.3577E-01   9.5985E+00  0.000E+00  0.000E+00  0.000E+00  1.04691E+03  6.637E-01  1.482E+01  3.706E-02  1.221E+00
   1    9    6     6     1    1.9746E+01  2.4336E-01   1.9503E+01  0.000E+00  0.000E+00  0.000E+00  1.04378E+03  1.056E+00  1.200E+01  6.000E-02  1.352E+00
   1   10    7     6     2    1.9503E+01  2.4289E-01   1.9260E+01  0.000E+00  0.000E+00  0.000E+00  1.03923E+03  1.048E+00  1.200E+01  6.000E-02  1.349E+00
   1   11    7     6     3    1.9260E+01  2.4241E-01   1.9018E+01  0.000E+00  0.000E+00  0.000E+00  1.03468E+03  1.040E+00  1.200E+01  6.000E-02  1.347E+00
   1   12    7     6     4    1.9018E+01  2.4194E-01   1.8776E+01  0.000E+00  0.000E+00  0.000E+00  1.03012E+03  1.032E+00  1.200E+01  6.000E-02  1.344E+00
   1   13    7     6     5    1.8776E+01  1.7703E-04   1.8775E+01  0.000E+00  0.000E+00  0.000E+00  1.02694E+03  1.028E+00  1.200E+01  2.400E-02  2.459E-03
   1   14    9     7     1    1.5000E+02  1.3499E+00   1.4865E+02  0.000E+00  0.000E+00  0.000E+00  1.03987E+03  2.288E+00  5.529E+01  5.593E-01  8.045E-01
   1   13    8     7     2    1.4865E+02  1.8798E+00   1.4677E+02  0.000E+00  0.000E+00  0.000E+00  1.03478E+03  2.279E+00  5.526E+01  6.148E-01  1.019E+00
   1   13    7     7     3    1.4677E+02  1.5409E+00   1.4523E+02  0.000E+00  0.000E+00  0.000E+00  1.02969E+03  2.270E+00  5.521E+01  5.584E-01  9.198E-01
   1   13    6     8     1    1.6400E+02  9.5950E-01   1.6305E+02  0.000E+00  0.000E+00  0.000E+00  1.02478E+03  2.910E+00  4.219E+01  4.299E-01  7.440E-01
   1   13    5     8     2    1.6305E+02  2.1386E-01   1.6283E+02  0.000E+00  0.000E+00  0.000E+00  1.01853E+03  2.906E+00  4.213E+01  4.293E-01  1.660E-01
   1   13    4     8     3    1.6283E+02 -2.3048E+00   1.6514E+02  0.000E+00  0.000E+00  0.000E+00  1.01229E+03  2.913E+00  4.223E+01  4.304E+00 -1.785E-01
   1   13    3     8     4    1.6514E+02 -3.5788E+00   1.6872E+02  0.000E+00  0.000E+00  0.000E+00  1.00606E+03  2.932E+00  4.251E+01  4.332E+00 -2.753E-01
   1   13    2     8     5    1.6872E+02 -2.5646E+00   1.7128E+02  0.000E+00  0.000E+00  0.000E+00  9.99827E+02  2.952E+00  4.281E+01  4.362E+00 -1.960E-01
   1   13    1     8     6    1.7128E+02 -1.9855E+00   1.7327E+02  0.000E+00  0.000E+00  0.000E+00  9.94842E+02  2.967E+00  4.302E+01  2.630E+00 -2.516E-01
   1    8    6     9     1    0.0000E+00  0.0000E+00   0.0000E+00  0.000E+00  0.000E+00  0.000E+00  1.07875E+03  0.000E+00  4.000E+00  0.000E+00  1.000E+00
   1    8    5     9     2    0.0000E+00  0.0000E+00   0.0000E+00  0.000E+00  0.000E+00  0.000E+00  1.07825E+03  0.000E+00  4.000E+00  0.000E+00  1.000E+00





UNSATURATED ZONE PACKAGE VOLUMETRIC BUDGET FOR  TIME STEP    30 STRESS PERIOD   38
  ------------------------------------------------------------------------------



     CUMULATIVE VOLUMES      L**3       RATES FOR THIS TIME STEP      L**3/T
     ------------------                 ------------------------

           IN:                                      IN:
           ---                                      ---
        INFILTRATION =  1548910886.9883          INFILTRATION =           0.8475

          OUT:                                     OUT:
          ----                                     ----
              UZF ET =  1286097352.2540                UZF ET =           0.7500
        UZF RECHARGE =    81203290.6307          UZF RECHARGE =       0.0000E+00

            IN - OUT =   181610244.1036              IN - OUT =       9.7500E-02

          STORAGE:                                 STORAGE:
          --------                                 --------
      STORAGE CHANGE =   181611402.4144        STORAGE CHANGE =       9.7500E-02

 PERCENT DISCREPANCY IS DIFFERENCE BETWEEN IN-OUT MINUS CHANGE IN STORAGE
 DIVIDED BY THE AVERAGE OF IN AND OUT TIMES 100

 PERCENT DISCREPANCY =          -0.00     PERCENT DISCREPANCY =           0.00






1
  VOLUMETRIC BUDGET FOR AGRICULTURAL FIELDS AT  END OF TIME STEP   30, STRESS PERIOD  38
  ------------------------------------------------------------------------------

     CUMULATIVE VOLUMES      L**3       RATES FOR THIS TIME STEP      L**3/T
     ------------------                 ------------------------

           IN:                                      IN:
           ---                                      ---
               AG WELLS  =   541941056.0000                 AG WELLS  =           0.0000
      DIVERSION SEGMENTS =   924417408.0000        DIVERSION SEGMENTS =           0.0000
           GW IRRIGATION =           0.0000             GW IRRIGATION =           0.0000
           SW IRRIGATION =           0.0000             SW IRRIGATION =           0.0000
        SYSTEM LOSSES GW =           0.0000          SYSTEM LOSSES GW =           0.0000
        SYSTEM LOSSES SW =           0.0000          SYSTEM LOSSES SW =           0.0000

                TOTAL IN =  1466358528.0000                  TOTAL IN =           0.0000

          OUT:                                     OUT:
          ----                                     ----
               AG WELLS  =           0.0000                 AG WELLS  =           0.0000
      DIVERSION SEGMENTS =           0.0000        DIVERSION SEGMENTS =           0.0000
           GW IRRIGATION =   541941056.0000             GW IRRIGATION =           0.0000
           SW IRRIGATION =   924435904.0000             SW IRRIGATION =           0.0000
        SYSTEM LOSSES GW =           0.0000          SYSTEM LOSSES GW =           0.0000
        SYSTEM LOSSES SW =           0.0000          SYSTEM LOSSES SW =           0.0000

               TOTAL OUT =  1466376960.0000                 TOTAL OUT =           0.0000

                IN - OUT =      -18432.0000                  IN - OUT =           0.0000

     PERCENT DISCREPANCY =          -0.00         PERCENT DISCREPANCY =           0.00



1
  VOLUMETRIC BUDGET FOR ENTIRE MODEL AT END OF TIME STEP   30, STRESS PERIOD  38
  ------------------------------------------------------------------------------

     CUMULATIVE VOLUMES      L**3       RATES FOR THIS TIME STEP      L**3/T
     ------------------                 ------------------------

           IN:                                      IN:
           ---                                      ---
             STORAGE     =   907756544.0000               STORAGE     =           1.6446
       CONSTANT HEAD     =           0.0000         CONSTANT HEAD     =           0.0000
     HEAD DEP BOUNDS     =    27854756.0000       HEAD DEP BOUNDS     =           0.2867
      STREAM LEAKAGE     =  1169081600.0000        STREAM LEAKAGE     =          11.4181
        UZF RECHARGE     =    81203288.0000          UZF RECHARGE     =           0.0000
               GW ET     =           0.0000                 GW ET     =           0.0000
     SURFACE LEAKAGE     =           0.0000       SURFACE LEAKAGE     =           0.0000
           AG WELLS      =           0.0000             AG WELLS      =           0.0000

                TOTAL IN =  2185896192.0000                  TOTAL IN =          13.3494

          OUT:                                     OUT:
          ----                                     ----
             STORAGE     =   574202432.0000               STORAGE     =           2.6272
       CONSTANT HEAD     =           0.0000         CONSTANT HEAD     =           0.0000
     HEAD DEP BOUNDS     =    28307760.0000       HEAD DEP BOUNDS     =           0.2887
      STREAM LEAKAGE     =  1038780480.0000        STREAM LEAKAGE     =          10.4337
        UZF RECHARGE     =           0.0000          UZF RECHARGE     =           0.0000
               GW ET     =     2673563.7500                 GW ET     =           0.0000
     SURFACE LEAKAGE     =           0.0000       SURFACE LEAKAGE     =           0.0000
           AG WELLS      =   541941056.0000             AG WELLS      =           0.0000

               TOTAL OUT =  2185905408.0000                 TOTAL OUT =          13.3496

                IN - OUT =       -9216.0000                  IN - OUT =      -2.7657E-04

     PERCENT DISCREPANCY =          -0.00         PERCENT DISCREPANCY =          -0.00






         TIME SUMMARY AT END OF TIME STEP   30 IN STRESS PERIOD   38
                    SECONDS     MINUTES      HOURS       DAYS        YEARS
                    -----------------------------------------------------------
   TIME STEP LENGTH  87667.      1461.1      24.352      1.0147     2.77799E-03
 STRESS PERIOD TIME 2.63000E+06  43833.      730.56      30.440     8.33397E-02
         TOTAL TIME 9.73959E+07 1.62326E+06  27054.      1127.3      3.0863    
1
1
                            STRESS PERIOD NO.   39, LENGTH =   2630000.    
                            -----------------------------------------------

                              NUMBER OF TIME STEPS =    30

                               MULTIPLIER FOR DELT =     1.000

                            INITIAL TIME STEP SIZE =   87666.66    

 REUSING NON-PARAMETER GHB CELLS FROM LAST STRESS PERIOD

      2 GHB CELLS

 REUSING STREAM SEGMENT DATA FROM LAST STRESS PERIOD



            AREAL INFILTRATION RATE
 READING ON UNIT   19 WITH FORMAT: (FREE)              

            1           2           3           4           5           6           7           8           9          10
 ........................................................................................................................
   1   1.0000E-10  2.0000E-10   0.000       0.000       0.000       0.000       0.000       0.000       0.000       0.000    
   2   2.0000E-10  1.0000E-10  2.0000E-10   0.000       0.000      8.0000E-10  8.0000E-10  5.0000E-10   0.000       0.000    
   3    0.000      5.0000E-10  1.0000E-10  1.0000E-10  8.0000E-10  8.0000E-10  5.0000E-10  5.0000E-10   0.000       0.000    
   4   8.0000E-10  5.0000E-10  1.0000E-10  1.0000E-10  1.0000E-10  1.0000E-10  1.0000E-10  1.0000E-10  2.0000E-10   0.000    
   5   8.0000E-10  5.0000E-10  1.0000E-10  1.0000E-10  1.0000E-10  1.0000E-10  1.0000E-10  1.0000E-10  1.0000E-10  1.0000E-10
   6   8.0000E-10  5.0000E-10  5.0000E-10  2.0000E-10  2.0000E-10  1.0000E-10  1.0000E-10  1.0000E-10  1.0000E-10  5.0000E-10
   7   8.0000E-10  5.0000E-10  5.0000E-10  2.0000E-10  2.0000E-10  1.0000E-10  1.0000E-10  2.0000E-10  2.0000E-10   0.000    
   8    0.000      5.0000E-10  5.0000E-10  2.0000E-10  2.0000E-10  1.0000E-10  1.0000E-10  2.0000E-10  5.0000E-10   0.000    
   9    0.000      5.0000E-10  5.0000E-10  2.0000E-10  2.0000E-10  1.0000E-10  1.0000E-10  2.0000E-10  5.0000E-10   0.000    
  10    0.000      5.0000E-10  5.0000E-10  2.0000E-10  2.0000E-10  1.0000E-10  1.0000E-10  2.0000E-10  5.0000E-10  8.0000E-10
  11    0.000      1.0000E-10  1.0000E-10  1.0000E-10  1.0000E-10  1.0000E-10  1.0000E-10  2.0000E-10  5.0000E-10   0.000    
  12   1.0000E-10  1.0000E-10  1.0000E-10  1.0000E-10  1.0000E-10  1.0000E-10  1.0000E-10  1.0000E-10  2.0000E-10   0.000    
  13   1.0000E-10  1.0000E-10  2.0000E-10  2.0000E-10  2.0000E-10  2.0000E-10  2.0000E-10  1.0000E-10  1.0000E-10   0.000    
  14    0.000      2.0000E-10  5.0000E-10  5.0000E-10  5.0000E-10  5.0000E-10  5.0000E-10  2.0000E-10  1.0000E-10   0.000    
  15    0.000       0.000      8.0000E-10  8.0000E-10  8.0000E-10  8.0000E-10   0.000       0.000       0.000       0.000    

                  ET RATE =  5.000000E-10

 USING ET EXTINCTION DEPTH FROM PREVIOUS STRESS PERIOD. CURRENT PERIOD IS:      39

 USING EXTINCTION WATER CONTENT FROM PREVIOUS STRESS PERIOD. CURRENT PERIOD IS:      39

 USING AIR ENTRY PRESSURE FROM PREVIOUS STRESS PERIOD. CURRENT PERIOD IS:      39

 USING ROOT PRESSURE HEAD FROM PREVIOUS STRESS PERIOD. CURRENT PERIOD IS:      39

 USING ROOT ACTIVITY FROM PREVIOUS STRESS PERIOD. CURRENT PERIOD IS:      39

 PROCESSING AG STRESS PERIOD DATA

 READING AG STRESS PERIOD DATA

 READING IRRIGATION SEGMENT

 READING IRRIGATION WELL

 READING SUPPLEMENTAL WELL

 END PROCESSING AG STRESS PERIOD DATA OPTIONS
 
 SOLVING FOR HEAD 
                                                   Max.-Head-Change                         Max.-Flux-Residual
  Residual-Control   Outer-Iter.   Inner-Iter.     Column Row Layer    Maximum-Head-Change  Column Row Layer    Maximum-Flux-Residual          L2-NORM 
          0                 1           2             3    7     1       0.4245741139E-02       3    7    1         0.1122934661E+00      0.5372744968E+00
          0                 2           2             3    7     1      -0.4129949211E-03       3    7    1        -0.1122934946E-01      0.5372445959E-01
          0                 3           1             3    7     1       0.2812345366E-04       3    7    1         0.7860547844E-03      0.3760426347E-02

    ------------------------------------------------
       NWT REQUIRED            3 OUTER ITERATIONS 
       AND A TOTAL OF          5 INNER ITERATIONS.
    ------------------------------------------------

 NO OUTPUT CONTROL FOR STRESS PERIOD   39   TIME STEP    1
 
 SOLVING FOR HEAD 
                                                   Max.-Head-Change                         Max.-Flux-Residual
  Residual-Control   Outer-Iter.   Inner-Iter.     Column Row Layer    Maximum-Head-Change  Column Row Layer    Maximum-Flux-Residual          L2-NORM 
          0                 1           2             3    7     1       0.4177975041E-02       3    7    1         0.1104854161E+00      0.5315836593E+00
          0                 2           2             3    7     1      -0.4064031305E-03       3    7    1        -0.1104854457E-01      0.5315561079E-01
          0                 3           1             3    7     1       0.2767457653E-04       3    7    1         0.7733984221E-03      0.3720616313E-02

    ------------------------------------------------
       NWT REQUIRED            3 OUTER ITERATIONS 
       AND A TOTAL OF          5 INNER ITERATIONS.
    ------------------------------------------------

 NO OUTPUT CONTROL FOR STRESS PERIOD   39   TIME STEP    2
 
 SOLVING FOR HEAD 
                                                   Max.-Head-Change                         Max.-Flux-Residual
  Residual-Control   Outer-Iter.   Inner-Iter.     Column Row Layer    Maximum-Head-Change  Column Row Layer    Maximum-Flux-Residual          L2-NORM 
          0                 1           2             3    7     1       0.4111635541E-02       7    8    1         0.1089769325E+00      0.5243506087E+00
          0                 2           2             3    7     1      -0.3999501094E-03       7    8    1        -0.1089769808E-01      0.5243385929E-01
          0                 3           1             3    7     1       0.2723515000E-04       7    8    1         0.7628391754E-03      0.3670265496E-02

    ------------------------------------------------
       NWT REQUIRED            3 OUTER ITERATIONS 
       AND A TOTAL OF          5 INNER ITERATIONS.
    ------------------------------------------------

 NO OUTPUT CONTROL FOR STRESS PERIOD   39   TIME STEP    3
 
 SOLVING FOR HEAD 
                                                   Max.-Head-Change                         Max.-Flux-Residual
  Residual-Control   Outer-Iter.   Inner-Iter.     Column Row Layer    Maximum-Head-Change  Column Row Layer    Maximum-Flux-Residual          L2-NORM 
          0                 1           2             3    7     1       0.4047169977E-02       6    5    1         0.1086955017E+00      0.5193441579E+00
          0                 2           2             3    7     1      -0.3936793709E-03       6    5    1        -0.1086955792E-01      0.5192910654E-01
          0                 3           1             3    7     1       0.2680813580E-04       6    5    1         0.7608692986E-03      0.3634491273E-02

    ------------------------------------------------
       NWT REQUIRED            3 OUTER ITERATIONS 
       AND A TOTAL OF          5 INNER ITERATIONS.
    ------------------------------------------------

 NO OUTPUT CONTROL FOR STRESS PERIOD   39   TIME STEP    4
 
 SOLVING FOR HEAD 
                                                   Max.-Head-Change                         Max.-Flux-Residual
  Residual-Control   Outer-Iter.   Inner-Iter.     Column Row Layer    Maximum-Head-Change  Column Row Layer    Maximum-Flux-Residual          L2-NORM 
          0                 1           2             3    7     1       0.3984033455E-02       6    5    1         0.1073571911E+00      0.5140460693E+00
          0                 2           2             3    7     1      -0.3875379114E-03       6    5    1        -0.1073572664E-01      0.5140027395E-01
          0                 3           1             3    7     1       0.2638992513E-04       6    5    1         0.7515011130E-03      0.3597599030E-02

    ------------------------------------------------
       NWT REQUIRED            3 OUTER ITERATIONS 
       AND A TOTAL OF          5 INNER ITERATIONS.
    ------------------------------------------------

 NO OUTPUT CONTROL FOR STRESS PERIOD   39   TIME STEP    5
 
 SOLVING FOR HEAD 
                                                   Max.-Head-Change                         Max.-Flux-Residual
  Residual-Control   Outer-Iter.   Inner-Iter.     Column Row Layer    Maximum-Head-Change  Column Row Layer    Maximum-Flux-Residual          L2-NORM 
          0                 1           2             3    7     1       0.3922671874E-02       7    8    1         0.1065323899E+00      0.5089496389E+00
          0                 2           2             3    7     1      -0.3815691051E-03       7    8    1        -0.1065324359E-01      0.5089207805E-01
          0                 3           1             3    7     1       0.2598347121E-04       7    8    1         0.7457273155E-03      0.3562257191E-02

    ------------------------------------------------
       NWT REQUIRED            3 OUTER ITERATIONS 
       AND A TOTAL OF          5 INNER ITERATIONS.
    ------------------------------------------------

 NO OUTPUT CONTROL FOR STRESS PERIOD   39   TIME STEP    6
 
 SOLVING FOR HEAD 
                                                   Max.-Head-Change                         Max.-Flux-Residual
  Residual-Control   Outer-Iter.   Inner-Iter.     Column Row Layer    Maximum-Head-Change  Column Row Layer    Maximum-Flux-Residual          L2-NORM 
          0                 1           2             3    7     1       0.3862548469E-02       7    8    1         0.1057422366E+00      0.5040573558E+00
          0                 2           2             3    7     1      -0.3757207392E-03       7    8    1        -0.1057422822E-01      0.5040277460E-01
          0                 3           1             3    7     1       0.2558521897E-04       7    8    1         0.7401962467E-03      0.3527934570E-02

    ------------------------------------------------
       NWT REQUIRED            3 OUTER ITERATIONS 
       AND A TOTAL OF          5 INNER ITERATIONS.
    ------------------------------------------------

 NO OUTPUT CONTROL FOR STRESS PERIOD   39   TIME STEP    7
 
 SOLVING FOR HEAD 
                                                   Max.-Head-Change                         Max.-Flux-Residual
  Residual-Control   Outer-Iter.   Inner-Iter.     Column Row Layer    Maximum-Head-Change  Column Row Layer    Maximum-Flux-Residual          L2-NORM 
          0                 1           2             3    7     1       0.3804108206E-02       7    8    1         0.1049473380E+00      0.4993364506E+00
          0                 2           2             3    7     1      -0.3700360965E-03       7    8    1        -0.1049473832E-01      0.4993117867E-01
          0                 3           1             3    7     1       0.2519811522E-04       7    8    1         0.7346319610E-03      0.3494942623E-02

    ------------------------------------------------
       NWT REQUIRED            3 OUTER ITERATIONS 
       AND A TOTAL OF          5 INNER ITERATIONS.
    ------------------------------------------------

 NO OUTPUT CONTROL FOR STRESS PERIOD   39   TIME STEP    8
 
 SOLVING FOR HEAD 
                                                   Max.-Head-Change                         Max.-Flux-Residual
  Residual-Control   Outer-Iter.   Inner-Iter.     Column Row Layer    Maximum-Head-Change  Column Row Layer    Maximum-Flux-Residual          L2-NORM 
          0                 1           2             3    7     1       0.3746816992E-02       7    8    1         0.1041593625E+00      0.4947812528E+00
          0                 2           2             3    7     1      -0.3644632257E-03       7    8    1        -0.1041594073E-01      0.4947584084E-01
          0                 3           1             3    7     1       0.2481862383E-04       7    8    1         0.7291161207E-03      0.3463125858E-02

    ------------------------------------------------
       NWT REQUIRED            3 OUTER ITERATIONS 
       AND A TOTAL OF          5 INNER ITERATIONS.
    ------------------------------------------------

 NO OUTPUT CONTROL FOR STRESS PERIOD   39   TIME STEP    9
 
 SOLVING FOR HEAD 
                                                   Max.-Head-Change                         Max.-Flux-Residual
  Residual-Control   Outer-Iter.   Inner-Iter.     Column Row Layer    Maximum-Head-Change  Column Row Layer    Maximum-Flux-Residual          L2-NORM 
          0                 1           2             3    7     1       0.3691127129E-02       7    8    1         0.1033672575E+00      0.4904081016E+00
          0                 2           2             3    7     1      -0.3590461222E-03       7    8    1        -0.1033673017E-01      0.4903917860E-01
          0                 3           1             3    7     1       0.2444973848E-04       7    8    1         0.7235713947E-03      0.3432030663E-02

    ------------------------------------------------
       NWT REQUIRED            3 OUTER ITERATIONS 
       AND A TOTAL OF          5 INNER ITERATIONS.
    ------------------------------------------------

 NO OUTPUT CONTROL FOR STRESS PERIOD   39   TIME STEP   10
 
 SOLVING FOR HEAD 
                                                   Max.-Head-Change                         Max.-Flux-Residual
  Residual-Control   Outer-Iter.   Inner-Iter.     Column Row Layer    Maximum-Head-Change  Column Row Layer    Maximum-Flux-Residual          L2-NORM 
          0                 1           2             3    7     1       0.3636500540E-02       7    8    1         0.1025943597E+00      0.4861686407E+00
          0                 2           2             3    7     1      -0.3537324456E-03       7    8    1        -0.1025944035E-01      0.4861561986E-01
          0                 3           1             3    7     1       0.2408789676E-04       7    8    1         0.7181610760E-03      0.3402980503E-02

    ------------------------------------------------
       NWT REQUIRED            3 OUTER ITERATIONS 
       AND A TOTAL OF          5 INNER ITERATIONS.
    ------------------------------------------------

 NO OUTPUT CONTROL FOR STRESS PERIOD   39   TIME STEP   11
 
 SOLVING FOR HEAD 
                                                   Max.-Head-Change                         Max.-Flux-Residual
  Residual-Control   Outer-Iter.   Inner-Iter.     Column Row Layer    Maximum-Head-Change  Column Row Layer    Maximum-Flux-Residual          L2-NORM 
          0                 1           2             3    7     1       0.3583393756E-02       7    8    1         0.1018288358E+00      0.4820851632E+00
          0                 2           2             3    7     1      -0.3485666043E-03       7    8    1        -0.1018288790E-01      0.4820749031E-01
          0                 3           1             3    7     1       0.2373612147E-04       7    8    1         0.7128024324E-03      0.3374417056E-02

    ------------------------------------------------
       NWT REQUIRED            3 OUTER ITERATIONS 
       AND A TOTAL OF          5 INNER ITERATIONS.
    ------------------------------------------------

 NO OUTPUT CONTROL FOR STRESS PERIOD   39   TIME STEP   12
 
 SOLVING FOR HEAD 
                                                   Max.-Head-Change                         Max.-Flux-Residual
  Residual-Control   Outer-Iter.   Inner-Iter.     Column Row Layer    Maximum-Head-Change  Column Row Layer    Maximum-Flux-Residual          L2-NORM 
          0                 1           2             3    7     1       0.3531761322E-02       7    8    1         0.1010596471E+00      0.4781430026E+00
          0                 2           2             3    7     1      -0.3435441775E-03       7    8    1        -0.1010596897E-01      0.4781346163E-01
          0                 3           1             3    7     1       0.2339411297E-04       7    8    1         0.7074181092E-03      0.3346869307E-02

    ------------------------------------------------
       NWT REQUIRED            3 OUTER ITERATIONS 
       AND A TOTAL OF          5 INNER ITERATIONS.
    ------------------------------------------------

 NO OUTPUT CONTROL FOR STRESS PERIOD   39   TIME STEP   13
 
 SOLVING FOR HEAD 
                                                   Max.-Head-Change                         Max.-Flux-Residual
  Residual-Control   Outer-Iter.   Inner-Iter.     Column Row Layer    Maximum-Head-Change  Column Row Layer    Maximum-Flux-Residual          L2-NORM 
          0                 1           2             3    7     1       0.3481072439E-02       7    8    1         0.1003099643E+00      0.4743251083E+00
          0                 2           2             3    7     1      -0.3386135316E-03       7    8    1        -0.1003100066E-01      0.4743184923E-01
          0                 3           1             3    7     1       0.2305835383E-04       7    8    1         0.7021703126E-03      0.3320212946E-02

    ------------------------------------------------
       NWT REQUIRED            3 OUTER ITERATIONS 
       AND A TOTAL OF          5 INNER ITERATIONS.
    ------------------------------------------------

 NO OUTPUT CONTROL FOR STRESS PERIOD   39   TIME STEP   14
 
 SOLVING FOR HEAD 
                                                   Max.-Head-Change                         Max.-Flux-Residual
  Residual-Control   Outer-Iter.   Inner-Iter.     Column Row Layer    Maximum-Head-Change  Column Row Layer    Maximum-Flux-Residual          L2-NORM 
          0                 1           2             3    7     1       0.3431784676E-02       7    8    1         0.9955655588E-01      0.4706467212E+00
          0                 2           2             3    7     1      -0.3338191771E-03       7    8    1        -0.9955659765E-02      0.4706412321E-01
          0                 3           1             3    7     1       0.2273187583E-04       7    8    1         0.6968964453E-03      0.3294358292E-02

    ------------------------------------------------
       NWT REQUIRED            3 OUTER ITERATIONS 
       AND A TOTAL OF          5 INNER ITERATIONS.
    ------------------------------------------------

 NO OUTPUT CONTROL FOR STRESS PERIOD   39   TIME STEP   15
 
 SOLVING FOR HEAD 
                                                   Max.-Head-Change                         Max.-Flux-Residual
  Residual-Control   Outer-Iter.   Inner-Iter.     Column Row Layer    Maximum-Head-Change  Column Row Layer    Maximum-Flux-Residual          L2-NORM 
          0                 1           2             3    7     1       0.3383859705E-02       7    8    1         0.9881166203E-01      0.4670782216E+00
          0                 2           2             3    7     1      -0.3291573847E-03       7    8    1        -0.9881170312E-02      0.4670734001E-01
          0                 3           1             3    7     1       0.2241442479E-04       7    8    1         0.6916821807E-03      0.3269414480E-02

    ------------------------------------------------
       NWT REQUIRED            3 OUTER ITERATIONS 
       AND A TOTAL OF          5 INNER ITERATIONS.
    ------------------------------------------------

 NO OUTPUT CONTROL FOR STRESS PERIOD   39   TIME STEP   16
 
 SOLVING FOR HEAD 
                                                   Max.-Head-Change                         Max.-Flux-Residual
  Residual-Control   Outer-Iter.   Inner-Iter.     Column Row Layer    Maximum-Head-Change  Column Row Layer    Maximum-Flux-Residual          L2-NORM 
          0                 1           2             3    7     1       0.3336764901E-02       7    8    1         0.9807498224E-01      0.4636235793E+00
          0                 2           2             3    7     1      -0.3245763443E-03       7    8    1        -0.9807502288E-02      0.4636202548E-01
          0                 3           1             3    7     1       0.2210247285E-04       7    8    1         0.6865254244E-03      0.3245296324E-02

    ------------------------------------------------
       NWT REQUIRED            3 OUTER ITERATIONS 
       AND A TOTAL OF          5 INNER ITERATIONS.
    ------------------------------------------------

 NO OUTPUT CONTROL FOR STRESS PERIOD   39   TIME STEP   17
 
 SOLVING FOR HEAD 
                                                   Max.-Head-Change                         Max.-Flux-Residual
  Residual-Control   Outer-Iter.   Inner-Iter.     Column Row Layer    Maximum-Head-Change  Column Row Layer    Maximum-Flux-Residual          L2-NORM 
          0                 1           2             3    7     1       0.3290967996E-02       7    8    1         0.9734660873E-01      0.4602820327E+00
          0                 2           2             3    7     1      -0.3201215541E-03       7    8    1        -0.9734664882E-02      0.4602823004E-01
          0                 3           1             3    7     1       0.2179911759E-04       7    8    1         0.6814267936E-03      0.3221961631E-02

    ------------------------------------------------
       NWT REQUIRED            3 OUTER ITERATIONS 
       AND A TOTAL OF          5 INNER ITERATIONS.
    ------------------------------------------------

 NO OUTPUT CONTROL FOR STRESS PERIOD   39   TIME STEP   18
 
 SOLVING FOR HEAD 
                                                   Max.-Head-Change                         Max.-Flux-Residual
  Residual-Control   Outer-Iter.   Inner-Iter.     Column Row Layer    Maximum-Head-Change  Column Row Layer    Maximum-Flux-Residual          L2-NORM 
          0                 1           2             3    7     1       0.3246424900E-02       7    8    1         0.9662662102E-01      0.4570554615E+00
          0                 2           2             3    7     1      -0.3157887255E-03       7    8    1        -0.9662666064E-02      0.4570535719E-01
          0                 3           1             3    7     1       0.2150406767E-04       7    8    1         0.6763868729E-03      0.3199360547E-02

    ------------------------------------------------
       NWT REQUIRED            3 OUTER ITERATIONS 
       AND A TOTAL OF          5 INNER ITERATIONS.
    ------------------------------------------------

 NO OUTPUT CONTROL FOR STRESS PERIOD   39   TIME STEP   19
 
 SOLVING FOR HEAD 
                                                   Max.-Head-Change                         Max.-Flux-Residual
  Residual-Control   Outer-Iter.   Inner-Iter.     Column Row Layer    Maximum-Head-Change  Column Row Layer    Maximum-Flux-Residual          L2-NORM 
          0                 1           2             3    7     1       0.3202610004E-02       7    8    1         0.9591526909E-01      0.4539124274E+00
          0                 2           2             3    7     1      -0.3115267313E-03       7    8    1        -0.9591530829E-02      0.4539108767E-01
          0                 3           1             3    7     1       0.2121384163E-04       7    8    1         0.6714074084E-03      0.3177315819E-02

    ------------------------------------------------
       NWT REQUIRED            3 OUTER ITERATIONS 
       AND A TOTAL OF          5 INNER ITERATIONS.
    ------------------------------------------------

 NO OUTPUT CONTROL FOR STRESS PERIOD   39   TIME STEP   20
 
 SOLVING FOR HEAD 
                                                   Max.-Head-Change                         Max.-Flux-Residual
  Residual-Control   Outer-Iter.   Inner-Iter.     Column Row Layer    Maximum-Head-Change  Column Row Layer    Maximum-Flux-Residual          L2-NORM 
          0                 1           2             3    7     1       0.3159992423E-02       7    8    1         0.9520088965E-01      0.4508682466E+00
          0                 2           2             3    7     1      -0.3073812021E-03       7    8    1        -0.9520092811E-02      0.4508660811E-01
          0                 3           1             3    7     1       0.2093154556E-04       7    8    1         0.6664067482E-03      0.3156025777E-02

    ------------------------------------------------
       NWT REQUIRED            3 OUTER ITERATIONS 
       AND A TOTAL OF          5 INNER ITERATIONS.
    ------------------------------------------------

 NO OUTPUT CONTROL FOR STRESS PERIOD   39   TIME STEP   21
 
 SOLVING FOR HEAD 
                                                   Max.-Head-Change                         Max.-Flux-Residual
  Residual-Control   Outer-Iter.   Inner-Iter.     Column Row Layer    Maximum-Head-Change  Column Row Layer    Maximum-Flux-Residual          L2-NORM 
          0                 1           2             3    7     1       0.3118044640E-02       7    8    1         0.9450666117E-01      0.4479266539E+00
          0                 2           2             3    7     1      -0.3033008264E-03       7    8    1        -0.9450669914E-02      0.4479259228E-01
          0                 3           1             3    7     1       0.2065368735E-04       7    8    1         0.6615471489E-03      0.3135461588E-02

    ------------------------------------------------
       NWT REQUIRED            3 OUTER ITERATIONS 
       AND A TOTAL OF          5 INNER ITERATIONS.
    ------------------------------------------------

 NO OUTPUT CONTROL FOR STRESS PERIOD   39   TIME STEP   22
 
 SOLVING FOR HEAD 
                                                   Max.-Head-Change                         Max.-Flux-Residual
  Residual-Control   Outer-Iter.   Inner-Iter.     Column Row Layer    Maximum-Head-Change  Column Row Layer    Maximum-Flux-Residual          L2-NORM 
          0                 1           2             3    7     1       0.3077237627E-02       7    8    1         0.9380973385E-01      0.4450685957E+00
          0                 2           2             3    7     1      -0.2993314164E-03       7    8    1        -0.9380977132E-02      0.4450677896E-01
          0                 3           1             3    7     1       0.2038338518E-04       7    8    1         0.6566686618E-03      0.3115462638E-02

    ------------------------------------------------
       NWT REQUIRED            3 OUTER ITERATIONS 
       AND A TOTAL OF          5 INNER ITERATIONS.
    ------------------------------------------------

 NO OUTPUT CONTROL FOR STRESS PERIOD   39   TIME STEP   23
 
 SOLVING FOR HEAD 
                                                   Max.-Head-Change                         Max.-Flux-Residual
  Residual-Control   Outer-Iter.   Inner-Iter.     Column Row Layer    Maximum-Head-Change  Column Row Layer    Maximum-Flux-Residual          L2-NORM 
          0                 1           2             3    7     1       0.3037537135E-02       7    8    1         0.9313298264E-01      0.4422889644E+00
          0                 2           2             3    7     1      -0.2954696408E-03       7    8    1        -0.9313301948E-02      0.4422884824E-01
          0                 3           1             3    7     1       0.2012041230E-04       7    8    1         0.6519313812E-03      0.3096021944E-02

    ------------------------------------------------
       NWT REQUIRED            3 OUTER ITERATIONS 
       AND A TOTAL OF          5 INNER ITERATIONS.
    ------------------------------------------------

 NO OUTPUT CONTROL FOR STRESS PERIOD   39   TIME STEP   24
 
 SOLVING FOR HEAD 
                                                   Max.-Head-Change                         Max.-Flux-Residual
  Residual-Control   Outer-Iter.   Inner-Iter.     Column Row Layer    Maximum-Head-Change  Column Row Layer    Maximum-Flux-Residual          L2-NORM 
          0                 1           2             3    7     1       0.2998909991E-02       7    8    1         0.9245334484E-01      0.4396084396E+00
          0                 2           2             3    7     1      -0.2917122725E-03       7    8    1        -0.9245338102E-02      0.4396079778E-01
          0                 3           1             3    7     1       0.1986454861E-04       7    8    1         0.6471739108E-03      0.3077245374E-02

    ------------------------------------------------
       NWT REQUIRED            3 OUTER ITERATIONS 
       AND A TOTAL OF          5 INNER ITERATIONS.
    ------------------------------------------------

 NO OUTPUT CONTROL FOR STRESS PERIOD   39   TIME STEP   25
 
 SOLVING FOR HEAD 
                                                   Max.-Head-Change                         Max.-Flux-Residual
  Residual-Control   Outer-Iter.   Inner-Iter.     Column Row Layer    Maximum-Head-Change  Column Row Layer    Maximum-Flux-Residual          L2-NORM 
          0                 1           2             3    7     1       0.2960836120E-02       7    8    1         0.9178263142E-01      0.4369890639E+00
          0                 2           2             3    7     1      -0.2880087224E-03       7    8    1        -0.9178266717E-02      0.4369888553E-01
          0                 3           1             3    7     1       0.1961235099E-04       7    8    1         0.6424789136E-03      0.3058946574E-02

    ------------------------------------------------
       NWT REQUIRED            3 OUTER ITERATIONS 
       AND A TOTAL OF          5 INNER ITERATIONS.
    ------------------------------------------------

 NO OUTPUT CONTROL FOR STRESS PERIOD   39   TIME STEP   26
 
 SOLVING FOR HEAD 
                                                   Max.-Head-Change                         Max.-Flux-Residual
  Residual-Control   Outer-Iter.   Inner-Iter.     Column Row Layer    Maximum-Head-Change  Column Row Layer    Maximum-Flux-Residual          L2-NORM 
          0                 1           2             3    7     1       0.2923787348E-02       7    8    1         0.9112061392E-01      0.4344542961E+00
          0                 2           2             3    7     1      -0.2844048863E-03       7    8    1        -0.9112064929E-02      0.4344536768E-01
          0                 3           1             3    7     1       0.1936694235E-04       7    8    1         0.6378447985E-03      0.3041157425E-02

    ------------------------------------------------
       NWT REQUIRED            3 OUTER ITERATIONS 
       AND A TOTAL OF          5 INNER ITERATIONS.
    ------------------------------------------------

 NO OUTPUT CONTROL FOR STRESS PERIOD   39   TIME STEP   27
 
 SOLVING FOR HEAD 
                                                   Max.-Head-Change                         Max.-Flux-Residual
  Residual-Control   Outer-Iter.   Inner-Iter.     Column Row Layer    Maximum-Head-Change  Column Row Layer    Maximum-Flux-Residual          L2-NORM 
          0                 1           2             3    7     1       0.2887732907E-02       7    8    1         0.9046750994E-01      0.4319813109E+00
          0                 2           2             3    7     1      -0.2808977715E-03       7    8    1        -0.9046754484E-02      0.4319810923E-01
          0                 3           1             3    7     1       0.1912812056E-04       7    8    1         0.6332730667E-03      0.3023869062E-02

    ------------------------------------------------
       NWT REQUIRED            3 OUTER ITERATIONS 
       AND A TOTAL OF          5 INNER ITERATIONS.
    ------------------------------------------------

 NO OUTPUT CONTROL FOR STRESS PERIOD   39   TIME STEP   28
 
 SOLVING FOR HEAD 
                                                   Max.-Head-Change                         Max.-Flux-Residual
  Residual-Control   Outer-Iter.   Inner-Iter.     Column Row Layer    Maximum-Head-Change  Column Row Layer    Maximum-Flux-Residual          L2-NORM 
          0                 1           2             3    7     1       0.2852641586E-02       7    8    1         0.8982307269E-01      0.4295847999E+00
          0                 2           2             3    7     1      -0.2774843416E-03       7    8    1        -0.8982310681E-02      0.4295846988E-01
          0                 3           1             3    7     1       0.1889567806E-04       7    8    1         0.6287619728E-03      0.3007083166E-02

    ------------------------------------------------
       NWT REQUIRED            3 OUTER ITERATIONS 
       AND A TOTAL OF          5 INNER ITERATIONS.
    ------------------------------------------------

 NO OUTPUT CONTROL FOR STRESS PERIOD   39   TIME STEP   29
 
 SOLVING FOR HEAD 
                                                   Max.-Head-Change                         Max.-Flux-Residual
  Residual-Control   Outer-Iter.   Inner-Iter.     Column Row Layer    Maximum-Head-Change  Column Row Layer    Maximum-Flux-Residual          L2-NORM 
          0                 1           2             4   13     1       0.6606857165E-02       4   13    1         0.3792964154E+00      0.8126934575E+00
          0                 2           2             4   13     1      -0.6363231023E-03       4   13    1        -0.3756052027E-01      0.7978528122E-01
          0                 3           1             4   13     1       0.4274578646E-04       4   13    1         0.2594213510E-02      0.5448045935E-02

    ------------------------------------------------
       NWT REQUIRED            3 OUTER ITERATIONS 
       AND A TOTAL OF          5 INNER ITERATIONS.
    ------------------------------------------------

 NO OUTPUT CONTROL FOR STRESS PERIOD   39   TIME STEP   30



 STREAM LISTING     PERIOD     39   STEP       30

 LAYER ROW COL. STREAM  RCH.  FLOW INTO     FLOW TO   FLOW OUT OF   OVRLND.     DIRECT     STREAM       STREAM     STREAM     STREAM   STREAMBED  STREAMBED
                SEG.NO.  NO.  STRM. RCH.    AQUIFER    STRM. RCH.    RUNOFF     PRECIP       ET          HEAD       DEPTH      WIDTH   CONDCTNC.   GRADIENT

   1    1    1     1     1    3.2750E+01  2.7790E-01   3.2473E+01  0.000E+00  0.000E+00  0.000E+00  1.09432E+03  1.273E+00  1.445E+01  6.503E-02  1.424E+00
   1    2    2     1     2    3.2473E+01  4.3019E-01   3.2042E+01  0.000E+00  0.000E+00  0.000E+00  1.08933E+03  1.270E+00  1.439E+01  1.007E-01  1.423E+00
   1    3    3     1     3    3.2042E+01  3.6669E-01   3.1676E+01  0.000E+00  0.000E+00  0.000E+00  1.08369E+03  1.267E+00  1.432E+01  8.594E-02  1.422E+00
   1    3    4     1     4    3.1676E+01  3.3752E-01   3.1338E+01  0.000E+00  0.000E+00  0.000E+00  1.07867E+03  1.264E+00  1.426E+01  7.916E-02  1.421E+00
   1    4    5     2     1    2.9338E+01  3.3732E-01   2.9001E+01  0.000E+00  0.000E+00  0.000E+00  1.07326E+03  1.325E+00  1.200E+01  7.800E-02  1.442E+00
   1    5    6     2     2    2.9001E+01  2.5899E-01   2.8742E+01  0.000E+00  0.000E+00  0.000E+00  1.06783E+03  1.317E+00  1.200E+01  6.000E-02  1.439E+00
   1    6    6     2     3    2.8742E+01  2.5857E-01   2.8483E+01  0.000E+00  0.000E+00  0.000E+00  1.06310E+03  1.309E+00  1.200E+01  6.000E-02  1.436E+00
   1    7    6     2     4    2.8483E+01  2.5814E-01   2.8225E+01  0.000E+00  0.000E+00  0.000E+00  1.05838E+03  1.302E+00  1.200E+01  6.000E-02  1.434E+00
   1    8    6     2     5    2.8225E+01  2.5771E-01   2.7967E+01  0.000E+00  0.000E+00  0.000E+00  1.05365E+03  1.295E+00  1.200E+01  6.000E-02  1.432E+00
   1    3    5     3     1    2.0000E+00  2.8252E-01   1.7175E+00  0.000E+00  0.000E+00  0.000E+00  1.07555E+03  1.909E+00  9.636E+00  7.227E-02  1.955E+00
   1    3    6     3     2    1.7175E+00  2.4905E-01   1.4684E+00  0.000E+00  0.000E+00  0.000E+00  1.07264E+03  1.727E+00  8.909E+00  6.682E-02  1.864E+00
   1    3    7     3     3    1.4684E+00  1.9718E-01   1.2712E+00  0.000E+00  0.000E+00  0.000E+00  1.06987E+03  1.555E+00  8.218E+00  5.547E-02  1.777E+00
   1    4    8     3     4    1.2712E+00  2.2567E-01   1.0456E+00  0.000E+00  0.000E+00  0.000E+00  1.06682E+03  1.364E+00  7.455E+00  6.709E-02  1.682E+00
   1    5    8     3     5    1.0456E+00  1.5790E-01   8.8768E-01  0.000E+00  0.000E+00  0.000E+00  1.06362E+03  1.164E+00  6.655E+00  4.991E-02  1.582E+00
   1    6    8     3     6    8.8768E-01  5.5980E-02   8.3170E-01  0.000E+00  0.000E+00  0.000E+00  1.06158E+03  1.036E+00  6.145E+00  1.844E-02  1.518E+00
   1    5   10     4     1    1.0000E+01  9.0919E-02   9.9091E+00  0.000E+00  0.000E+00  0.000E+00  1.07836E+03  6.368E-01  1.000E+01  2.500E-02  1.212E+00
   1    5    9     4     2    9.9091E+00  1.8158E-01   9.7275E+00  0.000E+00  0.000E+00  0.000E+00  1.07154E+03  6.315E-01  1.000E+01  5.000E-02  1.211E+00
   1    6    8     4     3    9.7275E+00  1.2689E-01   9.6006E+00  0.000E+00  0.000E+00  0.000E+00  1.06381E+03  6.256E-01  1.000E+01  3.500E-02  1.209E+00
   1    6    8     5     1    1.0432E+01  2.2686E-01   1.0205E+01  0.000E+00  0.000E+00  0.000E+00  1.05868E+03  6.790E-01  1.542E+01  6.166E-02  1.226E+00
   1    7    7     5     2    1.0205E+01  2.7894E-01   9.9265E+00  0.000E+00  0.000E+00  0.000E+00  1.05417E+03  6.732E-01  1.519E+01  7.594E-02  1.224E+00
   1    8    7     5     3    9.9265E+00  1.9221E-01   9.7343E+00  0.000E+00  0.000E+00  0.000E+00  1.04992E+03  6.676E-01  1.497E+01  5.241E-02  1.223E+00
   1    8    6     5     4    9.7343E+00  1.3577E-01   9.5985E+00  0.000E+00  0.000E+00  0.000E+00  1.04691E+03  6.637E-01  1.482E+01  3.706E-02  1.221E+00
   1    9    6     6     1    3.7566E+01  2.7334E-01   3.7293E+01  0.000E+00  0.000E+00  0.000E+00  1.04428E+03  1.556E+00  1.200E+01  6.000E-02  1.519E+00
   1   10    7     6     2    3.7293E+01  2.7293E-01   3.7020E+01  0.000E+00  0.000E+00  0.000E+00  1.03973E+03  1.549E+00  1.200E+01  6.000E-02  1.516E+00
   1   11    7     6     3    3.7020E+01  2.7252E-01   3.6747E+01  0.000E+00  0.000E+00  0.000E+00  1.03518E+03  1.542E+00  1.200E+01  6.000E-02  1.514E+00
   1   12    7     6     4    3.6747E+01  2.7211E-01   3.6475E+01  0.000E+00  0.000E+00  0.000E+00  1.03063E+03  1.535E+00  1.200E+01  6.000E-02  1.512E+00
   1   13    7     6     5    3.6475E+01  1.2433E-02   3.6463E+01  0.000E+00  0.000E+00  0.000E+00  1.02744E+03  1.532E+00  1.200E+01  2.400E-02  1.727E-01
   1   14    9     7     1    1.5000E+02  1.3508E+00   1.4865E+02  0.000E+00  0.000E+00  0.000E+00  1.03987E+03  2.288E+00  5.529E+01  5.593E-01  8.050E-01
   1   13    8     7     2    1.4865E+02  1.8824E+00   1.4677E+02  0.000E+00  0.000E+00  0.000E+00  1.03478E+03  2.279E+00  5.526E+01  6.148E-01  1.021E+00
   1   13    7     7     3    1.4677E+02  1.5450E+00   1.4522E+02  0.000E+00  0.000E+00  0.000E+00  1.02969E+03  2.270E+00  5.521E+01  5.584E-01  9.222E-01
   1   13    6     8     1    1.8168E+02  1.0507E+00   1.8063E+02  0.000E+00  0.000E+00  0.000E+00  1.02490E+03  3.023E+00  4.384E+01  4.467E-01  7.840E-01
   1   13    5     8     2    1.8063E+02  2.7477E-01   1.8036E+02  0.000E+00  0.000E+00  0.000E+00  1.01864E+03  3.019E+00  4.378E+01  4.461E-01  2.053E-01
   1   13    4     8     3    1.8036E+02 -1.9339E+00   1.8229E+02  0.000E+00  0.000E+00  0.000E+00  1.01240E+03  3.024E+00  4.385E+01  4.469E+00 -1.442E-01
   1   13    3     8     4    1.8229E+02 -3.2597E+00   1.8555E+02  0.000E+00  0.000E+00  0.000E+00  1.00617E+03  3.041E+00  4.409E+01  4.493E+00 -2.418E-01
   1   13    2     8     5    1.8555E+02 -2.2223E+00   1.8777E+02  0.000E+00  0.000E+00  0.000E+00  9.99933E+02  3.058E+00  4.433E+01  4.518E+00 -1.640E-01
   1   13    1     8     6    1.8777E+02 -1.7860E+00   1.8956E+02  0.000E+00  0.000E+00  0.000E+00  9.94945E+02  3.070E+00  4.451E+01  2.722E+00 -2.187E-01
   1    8    6     9     1    0.0000E+00  0.0000E+00   0.0000E+00  0.000E+00  0.000E+00  0.000E+00  1.07875E+03  0.000E+00  4.000E+00  0.000E+00  1.000E+00
   1    8    5     9     2    0.0000E+00  0.0000E+00   0.0000E+00  0.000E+00  0.000E+00  0.000E+00  1.07825E+03  0.000E+00  4.000E+00  0.000E+00  1.000E+00





UNSATURATED ZONE PACKAGE VOLUMETRIC BUDGET FOR  TIME STEP    30 STRESS PERIOD   39
  ------------------------------------------------------------------------------



     CUMULATIVE VOLUMES      L**3       RATES FOR THIS TIME STEP      L**3/T
     ------------------                 ------------------------

           IN:                                      IN:
           ---                                      ---
        INFILTRATION =  1551139811.8610          INFILTRATION =           0.8475

          OUT:                                     OUT:
          ----                                     ----
              UZF ET =  1288069852.1079                UZF ET =           0.7500
        UZF RECHARGE =    81203290.6307          UZF RECHARGE =       0.0000E+00

            IN - OUT =   181866669.1224              IN - OUT =       9.7500E-02

          STORAGE:                                 STORAGE:
          --------                                 --------
      STORAGE CHANGE =   181867827.4546        STORAGE CHANGE =       9.7500E-02

 PERCENT DISCREPANCY IS DIFFERENCE BETWEEN IN-OUT MINUS CHANGE IN STORAGE
 DIVIDED BY THE AVERAGE OF IN AND OUT TIMES 100

 PERCENT DISCREPANCY =          -0.00     PERCENT DISCREPANCY =           0.00






1
  VOLUMETRIC BUDGET FOR AGRICULTURAL FIELDS AT  END OF TIME STEP   30, STRESS PERIOD  39
  ------------------------------------------------------------------------------

     CUMULATIVE VOLUMES      L**3       RATES FOR THIS TIME STEP      L**3/T
     ------------------                 ------------------------

           IN:                                      IN:
           ---                                      ---
               AG WELLS  =   541941056.0000                 AG WELLS  =           0.0000
      DIVERSION SEGMENTS =   924417408.0000        DIVERSION SEGMENTS =           0.0000
           GW IRRIGATION =           0.0000             GW IRRIGATION =           0.0000
           SW IRRIGATION =           0.0000             SW IRRIGATION =           0.0000
        SYSTEM LOSSES GW =           0.0000          SYSTEM LOSSES GW =           0.0000
        SYSTEM LOSSES SW =           0.0000          SYSTEM LOSSES SW =           0.0000

                TOTAL IN =  1466358528.0000                  TOTAL IN =           0.0000

          OUT:                                     OUT:
          ----                                     ----
               AG WELLS  =           0.0000                 AG WELLS  =           0.0000
      DIVERSION SEGMENTS =           0.0000        DIVERSION SEGMENTS =           0.0000
           GW IRRIGATION =   541941056.0000             GW IRRIGATION =           0.0000
           SW IRRIGATION =   924435904.0000             SW IRRIGATION =           0.0000
        SYSTEM LOSSES GW =           0.0000          SYSTEM LOSSES GW =           0.0000
        SYSTEM LOSSES SW =           0.0000          SYSTEM LOSSES SW =           0.0000

               TOTAL OUT =  1466376960.0000                 TOTAL OUT =           0.0000

                IN - OUT =      -18432.0000                  IN - OUT =           0.0000

     PERCENT DISCREPANCY =          -0.00         PERCENT DISCREPANCY =           0.00



1
  VOLUMETRIC BUDGET FOR ENTIRE MODEL AT END OF TIME STEP   30, STRESS PERIOD  39
  ------------------------------------------------------------------------------

     CUMULATIVE VOLUMES      L**3       RATES FOR THIS TIME STEP      L**3/T
     ------------------                 ------------------------

           IN:                                      IN:
           ---                                      ---
             STORAGE     =   911170816.0000               STORAGE     =           0.9634
       CONSTANT HEAD     =           0.0000         CONSTANT HEAD     =           0.0000
     HEAD DEP BOUNDS     =    28608904.0000       HEAD DEP BOUNDS     =           0.2868
      STREAM LEAKAGE     =  1199440768.0000        STREAM LEAKAGE     =          12.3915
        UZF RECHARGE     =    81203288.0000          UZF RECHARGE     =           0.0000
               GW ET     =           0.0000                 GW ET     =           0.0000
     SURFACE LEAKAGE     =           0.0000       SURFACE LEAKAGE     =           0.0000
           AG WELLS      =           0.0000             AG WELLS      =           0.0000

                TOTAL IN =  2220423680.0000                  TOTAL IN =          13.6417

          OUT:                                     OUT:
          ----                                     ----
             STORAGE     =   580822464.0000               STORAGE     =           4.1519
       CONSTANT HEAD     =           0.0000         CONSTANT HEAD     =           0.0000
     HEAD DEP BOUNDS     =    29067028.0000       HEAD DEP BOUNDS     =           0.2888
      STREAM LEAKAGE     =  1065929600.0000        STREAM LEAKAGE     =           9.2019
        UZF RECHARGE     =           0.0000          UZF RECHARGE     =           0.0000
               GW ET     =     2673563.7500                 GW ET     =           0.0000
     SURFACE LEAKAGE     =           0.0000       SURFACE LEAKAGE     =           0.0000
           AG WELLS      =   541941056.0000             AG WELLS      =           0.0000

               TOTAL OUT =  2220433664.0000                 TOTAL OUT =          13.6426

                IN - OUT =       -9984.0000                  IN - OUT =      -9.0599E-04

     PERCENT DISCREPANCY =          -0.00         PERCENT DISCREPANCY =          -0.01






         TIME SUMMARY AT END OF TIME STEP   30 IN STRESS PERIOD   39
                    SECONDS     MINUTES      HOURS       DAYS        YEARS
                    -----------------------------------------------------------
   TIME STEP LENGTH  87667.      1461.1      24.352      1.0147     2.77799E-03
 STRESS PERIOD TIME 2.63000E+06  43833.      730.56      30.440     8.33397E-02
         TOTAL TIME 1.00026E+08 1.66710E+06  27785.      1157.7      3.1696    
1
1
                            STRESS PERIOD NO.   40, LENGTH =   2630000.    
                            -----------------------------------------------

                              NUMBER OF TIME STEPS =    30

                               MULTIPLIER FOR DELT =     1.000

                            INITIAL TIME STEP SIZE =   87666.66    

 REUSING NON-PARAMETER GHB CELLS FROM LAST STRESS PERIOD

      2 GHB CELLS

 REUSING STREAM SEGMENT DATA FROM LAST STRESS PERIOD



            AREAL INFILTRATION RATE
 READING ON UNIT   19 WITH FORMAT: (FREE)              

            1           2           3           4           5           6           7           8           9          10
 ........................................................................................................................
   1   1.0000E-10  2.0000E-10   0.000       0.000       0.000       0.000       0.000       0.000       0.000       0.000    
   2   2.0000E-10  1.0000E-10  2.0000E-10   0.000       0.000      8.0000E-10  8.0000E-10  5.0000E-10   0.000       0.000    
   3    0.000      5.0000E-10  1.0000E-10  1.0000E-10  8.0000E-10  8.0000E-10  5.0000E-10  5.0000E-10   0.000       0.000    
   4   8.0000E-10  5.0000E-10  1.0000E-10  1.0000E-10  1.0000E-10  1.0000E-10  1.0000E-10  1.0000E-10  2.0000E-10   0.000    
   5   8.0000E-10  5.0000E-10  1.0000E-10  1.0000E-10  1.0000E-10  1.0000E-10  1.0000E-10  1.0000E-10  1.0000E-10  1.0000E-10
   6   8.0000E-10  5.0000E-10  5.0000E-10  2.0000E-10  2.0000E-10  1.0000E-10  1.0000E-10  1.0000E-10  1.0000E-10  5.0000E-10
   7   8.0000E-10  5.0000E-10  5.0000E-10  2.0000E-10  2.0000E-10  1.0000E-10  1.0000E-10  2.0000E-10  2.0000E-10   0.000    
   8    0.000      5.0000E-10  5.0000E-10  2.0000E-10  2.0000E-10  1.0000E-10  1.0000E-10  2.0000E-10  5.0000E-10   0.000    
   9    0.000      5.0000E-10  5.0000E-10  2.0000E-10  2.0000E-10  1.0000E-10  1.0000E-10  2.0000E-10  5.0000E-10   0.000    
  10    0.000      5.0000E-10  5.0000E-10  2.0000E-10  2.0000E-10  1.0000E-10  1.0000E-10  2.0000E-10  5.0000E-10  8.0000E-10
  11    0.000      1.0000E-10  1.0000E-10  1.0000E-10  1.0000E-10  1.0000E-10  1.0000E-10  2.0000E-10  5.0000E-10   0.000    
  12   1.0000E-10  1.0000E-10  1.0000E-10  1.0000E-10  1.0000E-10  1.0000E-10  1.0000E-10  1.0000E-10  2.0000E-10   0.000    
  13   1.0000E-10  1.0000E-10  2.0000E-10  2.0000E-10  2.0000E-10  2.0000E-10  2.0000E-10  1.0000E-10  1.0000E-10   0.000    
  14    0.000      2.0000E-10  5.0000E-10  5.0000E-10  5.0000E-10  5.0000E-10  5.0000E-10  2.0000E-10  1.0000E-10   0.000    
  15    0.000       0.000      8.0000E-10  8.0000E-10  8.0000E-10  8.0000E-10   0.000       0.000       0.000       0.000    

                  ET RATE =  5.000000E-10

 USING ET EXTINCTION DEPTH FROM PREVIOUS STRESS PERIOD. CURRENT PERIOD IS:      40

 USING EXTINCTION WATER CONTENT FROM PREVIOUS STRESS PERIOD. CURRENT PERIOD IS:      40

 USING AIR ENTRY PRESSURE FROM PREVIOUS STRESS PERIOD. CURRENT PERIOD IS:      40

 USING ROOT PRESSURE HEAD FROM PREVIOUS STRESS PERIOD. CURRENT PERIOD IS:      40

 USING ROOT ACTIVITY FROM PREVIOUS STRESS PERIOD. CURRENT PERIOD IS:      40

 PROCESSING AG STRESS PERIOD DATA

 READING AG STRESS PERIOD DATA

 READING IRRIGATION SEGMENT

 READING IRRIGATION WELL

 READING SUPPLEMENTAL WELL

 END PROCESSING AG STRESS PERIOD DATA OPTIONS
 
 SOLVING FOR HEAD 
                                                   Max.-Head-Change                         Max.-Flux-Residual
  Residual-Control   Outer-Iter.   Inner-Iter.     Column Row Layer    Maximum-Head-Change  Column Row Layer    Maximum-Flux-Residual          L2-NORM 
          0                 1           2             4   13     1       0.2239262943E-01       4   13    1         0.1292047033E+01      0.2354538137E+01
          0                 2           2             4   13     1      -0.2153912313E-02       4   13    1        -0.1277852637E+00      0.2287060231E+00
          0                 3           2             4   13     1       0.1443920625E-03       4   13    1         0.8807732725E-02      0.1537855269E-01
          0                 4           1             4   13     1      -0.5595447866E-05       4   13    1        -0.3509504559E-03      0.5885953834E-03

    ------------------------------------------------
       NWT REQUIRED            4 OUTER ITERATIONS 
       AND A TOTAL OF          7 INNER ITERATIONS.
    ------------------------------------------------

 NO OUTPUT CONTROL FOR STRESS PERIOD   40   TIME STEP    1
 
 SOLVING FOR HEAD 
                                                   Max.-Head-Change                         Max.-Flux-Residual
  Residual-Control   Outer-Iter.   Inner-Iter.     Column Row Layer    Maximum-Head-Change  Column Row Layer    Maximum-Flux-Residual          L2-NORM 
          0                 1           2             4   13     1       0.2018613439E-01       4   13    1         0.1164038292E+01      0.2180622983E+01
          0                 2           2             4   13     1      -0.1941632735E-02       4   13    1        -0.1151218307E+00      0.2119511971E+00
          0                 3           2             4   13     1       0.1301701184E-03       4   13    1         0.7935355738E-02      0.1426643023E-01
          0                 4           1             4   13     1      -0.5058989053E-05       4   13    1        -0.3171145681E-03      0.5475876024E-03

    ------------------------------------------------
       NWT REQUIRED            4 OUTER ITERATIONS 
       AND A TOTAL OF          7 INNER ITERATIONS.
    ------------------------------------------------

 NO OUTPUT CONTROL FOR STRESS PERIOD   40   TIME STEP    2
 
 SOLVING FOR HEAD 
                                                   Max.-Head-Change                         Max.-Flux-Residual
  Residual-Control   Outer-Iter.   Inner-Iter.     Column Row Layer    Maximum-Head-Change  Column Row Layer    Maximum-Flux-Residual          L2-NORM 
          0                 1           2             4   13     1       0.1820845978E-01       4   13    1         0.1049340525E+01      0.2024050566E+01
          0                 2           2             4   13     1      -0.1751358423E-02       4   13    1        -0.1037747402E+00      0.1968756172E+00
          0                 3           1             4   13     1       0.1174101613E-03       4   13    1         0.7152905052E-02      0.1326648366E-01
          0                 4           1             4   13     1      -0.4547612860E-05       4   13    1        -0.2848616696E-03      0.5100662020E-03

    ------------------------------------------------
       NWT REQUIRED            4 OUTER ITERATIONS 
       AND A TOTAL OF          6 INNER ITERATIONS.
    ------------------------------------------------

 NO OUTPUT CONTROL FOR STRESS PERIOD   40   TIME STEP    3
 
 SOLVING FOR HEAD 
                                                   Max.-Head-Change                         Max.-Flux-Residual
  Residual-Control   Outer-Iter.   Inner-Iter.     Column Row Layer    Maximum-Head-Change  Column Row Layer    Maximum-Flux-Residual          L2-NORM 
          0                 1           2             2   13     1       0.1667601012E-01       4   13    1         0.9465343745E+00      0.1883171754E+01
          0                 2           2             4   13     1      -0.1580720908E-02       4   13    1        -0.9360215574E-01      0.1833238428E+00
          0                 3           1             4   13     1       0.1059488828E-03       4   13    1         0.6450476299E-02      0.1236459263E-01
          0                 4           1             4   13     1      -0.4097999171E-05       4   13    1        -0.2565261293E-03      0.4758211216E-03

    ------------------------------------------------
       NWT REQUIRED            4 OUTER ITERATIONS 
       AND A TOTAL OF          6 INNER ITERATIONS.
    ------------------------------------------------

 NO OUTPUT CONTROL FOR STRESS PERIOD   40   TIME STEP    4
 
 SOLVING FOR HEAD 
                                                   Max.-Head-Change                         Max.-Flux-Residual
  Residual-Control   Outer-Iter.   Inner-Iter.     Column Row Layer    Maximum-Head-Change  Column Row Layer    Maximum-Flux-Residual          L2-NORM 
          0                 1           2             2   13     1       0.1536014654E-01       2   13    1         0.8692443393E+00      0.1756498432E+01
          0                 2           2             4   13     1      -0.1427780398E-02       4   13    1        -0.8448113905E-01      0.1712088208E+00
          0                 3           1             4   13     1       0.9569704143E-04       4   13    1         0.5821684191E-02      0.1156582807E-01

    ------------------------------------------------
       NWT REQUIRED            3 OUTER ITERATIONS 
       AND A TOTAL OF          5 INNER ITERATIONS.
    ------------------------------------------------

 NO OUTPUT CONTROL FOR STRESS PERIOD   40   TIME STEP    5
 
 SOLVING FOR HEAD 
                                                   Max.-Head-Change                         Max.-Flux-Residual
  Residual-Control   Outer-Iter.   Inner-Iter.     Column Row Layer    Maximum-Head-Change  Column Row Layer    Maximum-Flux-Residual          L2-NORM 
          0                 1           2             2   13     1       0.1414866091E-01       2   13    1         0.8005984900E+00      0.1642587666E+01
          0                 2           2             2   13     1      -0.1311818129E-02       2   13    1        -0.7630210851E-01      0.1601894974E+00
          0                 3           1             4   13     1       0.8648322481E-04       4   13    1         0.5257787057E-02      0.1083320883E-01

    ------------------------------------------------
       NWT REQUIRED            3 OUTER ITERATIONS 
       AND A TOTAL OF          5 INNER ITERATIONS.
    ------------------------------------------------

 NO OUTPUT CONTROL FOR STRESS PERIOD   40   TIME STEP    6
 
 SOLVING FOR HEAD 
                                                   Max.-Head-Change                         Max.-Flux-Residual
  Residual-Control   Outer-Iter.   Inner-Iter.     Column Row Layer    Maximum-Head-Change  Column Row Layer    Maximum-Flux-Residual          L2-NORM 
          0                 1           2             2   13     1       0.1303358116E-01       2   13    1         0.7374173304E+00      0.1540303997E+01
          0                 2           2             2   13     1      -0.1209084367E-02       2   13    1        -0.7031806147E-01      0.1503671220E+00
          0                 3           1             4   13     1       0.7820850679E-04       4   13    1         0.4751126682E-02      0.1018394909E-01

    ------------------------------------------------
       NWT REQUIRED            3 OUTER ITERATIONS 
       AND A TOTAL OF          5 INNER ITERATIONS.
    ------------------------------------------------

 NO OUTPUT CONTROL FOR STRESS PERIOD   40   TIME STEP    7
 
 SOLVING FOR HEAD 
                                                   Max.-Head-Change                         Max.-Flux-Residual
  Residual-Control   Outer-Iter.   Inner-Iter.     Column Row Layer    Maximum-Head-Change  Column Row Layer    Maximum-Flux-Residual          L2-NORM 
          0                 1           2             2   13     1       0.1200727192E-01       2   13    1         0.6792681787E+00      0.1448534098E+01
          0                 2           2             2   13     1      -0.1114451767E-02       2   13    1        -0.6480615430E-01      0.1415667165E+00
          0                 3           1             2   13     1       0.7096351631E-04       4   13    1         0.4296313385E-02      0.9602973792E-02

    ------------------------------------------------
       NWT REQUIRED            3 OUTER ITERATIONS 
       AND A TOTAL OF          5 INNER ITERATIONS.
    ------------------------------------------------

 NO OUTPUT CONTROL FOR STRESS PERIOD   40   TIME STEP    8
 
 SOLVING FOR HEAD 
                                                   Max.-Head-Change                         Max.-Flux-Residual
  Residual-Control   Outer-Iter.   Inner-Iter.     Column Row Layer    Maximum-Head-Change  Column Row Layer    Maximum-Flux-Residual          L2-NORM 
          0                 1           2             2   13     1       0.1106266631E-01       2   13    1         0.6257505015E+00      0.1366260659E+01
          0                 2           2             2   13     1      -0.1027257798E-02       2   13    1        -0.5972664519E-01      0.1337293069E+00
          0                 3           1             2   13     1       0.6542996103E-04       2   13    1         0.3909726831E-02      0.9084220931E-02

    ------------------------------------------------
       NWT REQUIRED            3 OUTER ITERATIONS 
       AND A TOTAL OF          5 INNER ITERATIONS.
    ------------------------------------------------

 NO OUTPUT CONTROL FOR STRESS PERIOD   40   TIME STEP    9
 
 SOLVING FOR HEAD 
                                                   Max.-Head-Change                         Max.-Flux-Residual
  Residual-Control   Outer-Iter.   Inner-Iter.     Column Row Layer    Maximum-Head-Change  Column Row Layer    Maximum-Flux-Residual          L2-NORM 
          0                 1           2             2   13     1       0.1019332671E-01       2   13    1         0.5765015058E+00      0.1292508970E+01
          0                 2           2             2   13     1      -0.9469124799E-03       2   13    1        -0.5504864824E-01      0.1266040396E+00
          0                 3           1             2   13     1       0.6037519956E-04       2   13    1         0.3607233553E-02      0.8616985913E-02

    ------------------------------------------------
       NWT REQUIRED            3 OUTER ITERATIONS 
       AND A TOTAL OF          5 INNER ITERATIONS.
    ------------------------------------------------

 NO OUTPUT CONTROL FOR STRESS PERIOD   40   TIME STEP   10
 
 SOLVING FOR HEAD 
                                                   Max.-Head-Change                         Max.-Flux-Residual
  Residual-Control   Outer-Iter.   Inner-Iter.     Column Row Layer    Maximum-Head-Change  Column Row Layer    Maximum-Flux-Residual          L2-NORM 
          0                 1           2             2   13     1       0.9393260580E-02       2   13    1         0.5311782032E+00      0.1226502118E+01
          0                 2           2             2   13     1      -0.8729364350E-03       2   13    1        -0.5074066237E-01      0.1202828461E+00
          0                 3           1             2   13     1       0.5568665210E-04       2   13    1         0.3326601266E-02      0.8200146755E-02

    ------------------------------------------------
       NWT REQUIRED            3 OUTER ITERATIONS 
       AND A TOTAL OF          5 INNER ITERATIONS.
    ------------------------------------------------

 NO OUTPUT CONTROL FOR STRESS PERIOD   40   TIME STEP   11
 
 SOLVING FOR HEAD 
                                                   Max.-Head-Change                         Max.-Flux-Residual
  Residual-Control   Outer-Iter.   Inner-Iter.     Column Row Layer    Maximum-Head-Change  Column Row Layer    Maximum-Flux-Residual          L2-NORM 
          0                 1           2             2   13     1       0.8657014317E-02       2   13    1         0.4894726305E+00      0.1167456521E+01
          0                 2           2             2   13     1      -0.8048004108E-03       2   13    1        -0.4677299873E-01      0.1146326622E+00
          0                 3           1             2   13     1       0.5137139343E-04       2   13    1         0.3068328991E-02      0.7828459217E-02

    ------------------------------------------------
       NWT REQUIRED            3 OUTER ITERATIONS 
       AND A TOTAL OF          5 INNER ITERATIONS.
    ------------------------------------------------

 NO OUTPUT CONTROL FOR STRESS PERIOD   40   TIME STEP   12
 
 SOLVING FOR HEAD 
                                                   Max.-Head-Change                         Max.-Flux-Residual
  Residual-Control   Outer-Iter.   Inner-Iter.     Column Row Layer    Maximum-Head-Change  Column Row Layer    Maximum-Flux-Residual          L2-NORM 
          0                 1           2             2   13     1       0.7979399210E-02       2   13    1         0.4510905803E+00      0.1114674648E+01
          0                 2           2             2   13     1      -0.7420262159E-03       2   13    1        -0.4311778386E-01      0.1095840695E+00
          0                 3           1             2   13     1       0.4737168543E-04       2   13    1         0.2828938086E-02      0.7496025291E-02

    ------------------------------------------------
       NWT REQUIRED            3 OUTER ITERATIONS 
       AND A TOTAL OF          5 INNER ITERATIONS.
    ------------------------------------------------

 NO OUTPUT CONTROL FOR STRESS PERIOD   40   TIME STEP   13
 
 SOLVING FOR HEAD 
                                                   Max.-Head-Change                         Max.-Flux-Residual
  Residual-Control   Outer-Iter.   Inner-Iter.     Column Row Layer    Maximum-Head-Change  Column Row Layer    Maximum-Flux-Residual          L2-NORM 
          0                 1           2             2   13     1       0.7355891775E-02       2   13    1         0.4157757099E+00      0.1067511629E+01
          0                 2           2             2   13     1      -0.6842661866E-03       2   13    1        -0.3975480711E-01      0.1050765206E+00
          0                 3           1             2   13     1       0.4372481610E-04       2   13    1         0.2610707618E-02      0.7201204792E-02

    ------------------------------------------------
       NWT REQUIRED            3 OUTER ITERATIONS 
       AND A TOTAL OF          5 INNER ITERATIONS.
    ------------------------------------------------

 NO OUTPUT CONTROL FOR STRESS PERIOD   40   TIME STEP   14
 
 SOLVING FOR HEAD 
                                                   Max.-Head-Change                         Max.-Flux-Residual
  Residual-Control   Outer-Iter.   Inner-Iter.     Column Row Layer    Maximum-Head-Change  Column Row Layer    Maximum-Flux-Residual          L2-NORM 
          0                 1           2             2   13     1       0.6782028162E-02       2   13    1         0.3832748779E+00      0.1025373058E+01
          0                 2           2             2   13     1      -0.6310145281E-03       2   13    1        -0.3665452990E-01      0.1010483819E+00
          0                 3           1             2   13     1       0.4032060621E-04       2   13    1         0.2407003335E-02      0.6935553153E-02

    ------------------------------------------------
       NWT REQUIRED            3 OUTER ITERATIONS 
       AND A TOTAL OF          5 INNER ITERATIONS.
    ------------------------------------------------

 NO OUTPUT CONTROL FOR STRESS PERIOD   40   TIME STEP   15
 
 SOLVING FOR HEAD 
                                                   Max.-Head-Change                         Max.-Flux-Residual
  Residual-Control   Outer-Iter.   Inner-Iter.     Column Row Layer    Maximum-Head-Change  Column Row Layer    Maximum-Flux-Residual          L2-NORM 
          0                 1           2             1   13     1       0.6295700442E-02       2   13    1         0.3533651507E+00      0.9877301159E+00
          0                 2           2             1   13     1      -0.5912879193E-03       2   13    1        -0.3380120157E-01      0.9746394162E-01
          0                 3           1             1   13     1       0.3832044891E-04       2   13    1         0.2220492040E-02      0.6700225693E-02

    ------------------------------------------------
       NWT REQUIRED            3 OUTER ITERATIONS 
       AND A TOTAL OF          5 INNER ITERATIONS.
    ------------------------------------------------

 NO OUTPUT CONTROL FOR STRESS PERIOD   40   TIME STEP   16
 
 SOLVING FOR HEAD 
                                                   Max.-Head-Change                         Max.-Flux-Residual
  Residual-Control   Outer-Iter.   Inner-Iter.     Column Row Layer    Maximum-Head-Change  Column Row Layer    Maximum-Flux-Residual          L2-NORM 
          0                 1           2             1   13     1       0.5996986466E-02       1   13    1         0.3276055401E+00      0.9540972994E+00
          0                 2           2             1   13     1      -0.5638685405E-03       1   13    1        -0.3166904105E-01      0.9423959170E-01
          0                 3           1             1   13     1       0.3661397179E-04       1   13    1         0.2114065833E-02      0.6488735905E-02

    ------------------------------------------------
       NWT REQUIRED            3 OUTER ITERATIONS 
       AND A TOTAL OF          5 INNER ITERATIONS.
    ------------------------------------------------

 NO OUTPUT CONTROL FOR STRESS PERIOD   40   TIME STEP   17
 
 SOLVING FOR HEAD 
                                                   Max.-Head-Change                         Max.-Flux-Residual
  Residual-Control   Outer-Iter.   Inner-Iter.     Column Row Layer    Maximum-Head-Change  Column Row Layer    Maximum-Flux-Residual          L2-NORM 
          0                 1           2             1   13     1       0.5710750200E-02       1   13    1         0.3120306870E+00      0.9240304283E+00
          0                 2           2             1   13     1      -0.5375317479E-03       1   13    1        -0.3019593841E-01      0.9136736387E-01
          0                 3           1             1   13     1       0.3495577341E-04       1   13    1         0.2018740239E-02      0.6300424863E-02

    ------------------------------------------------
       NWT REQUIRED            3 OUTER ITERATIONS 
       AND A TOTAL OF          5 INNER ITERATIONS.
    ------------------------------------------------

 NO OUTPUT CONTROL FOR STRESS PERIOD   40   TIME STEP   18
 
 SOLVING FOR HEAD 
                                                   Max.-Head-Change                         Max.-Flux-Residual
  Residual-Control   Outer-Iter.   Inner-Iter.     Column Row Layer    Maximum-Head-Change  Column Row Layer    Maximum-Flux-Residual          L2-NORM 
          0                 1           2             1   13     1       0.5436673799E-02       1   13    1         0.2971113430E+00      0.8971414346E+00
          0                 2           2             1   13     1      -0.5122499488E-03       1   13    1        -0.2878121768E-01      0.8879832830E-01
          0                 3           1             1   13     1       0.3335742745E-04       1   13    1         0.1926804002E-02      0.6131094482E-02

    ------------------------------------------------
       NWT REQUIRED            3 OUTER ITERATIONS 
       AND A TOTAL OF          5 INNER ITERATIONS.
    ------------------------------------------------

 NO OUTPUT CONTROL FOR STRESS PERIOD   40   TIME STEP   19
 
 SOLVING FOR HEAD 
                                                   Max.-Head-Change                         Max.-Flux-Residual
  Residual-Control   Outer-Iter.   Inner-Iter.     Column Row Layer    Maximum-Head-Change  Column Row Layer    Maximum-Flux-Residual          L2-NORM 
          0                 1           2             1   13     1       0.5174331878E-02       1   13    1         0.2828251633E+00      0.8730843239E+00
          0                 2           2             1   13     1      -0.4879667505E-03       1   13    1        -0.2742181760E-01      0.8649857369E-01
          0                 3           1             1   13     1       0.3181560545E-04       1   13    1         0.1838082024E-02      0.5980452019E-02

    ------------------------------------------------
       NWT REQUIRED            3 OUTER ITERATIONS 
       AND A TOTAL OF          5 INNER ITERATIONS.
    ------------------------------------------------

 NO OUTPUT CONTROL FOR STRESS PERIOD   40   TIME STEP   20
 
 SOLVING FOR HEAD 
                                                   Max.-Head-Change                         Max.-Flux-Residual
  Residual-Control   Outer-Iter.   Inner-Iter.     Column Row Layer    Maximum-Head-Change  Column Row Layer    Maximum-Flux-Residual          L2-NORM 
          0                 1           2             1   13     1       0.4923412250E-02       1   13    1         0.2691559774E+00      0.8515358103E+00
          0                 2           2             1   13     1      -0.4647080247E-03       1   13    1        -0.2611927137E-01      0.8443834066E-01
          0                 3           1             1   13     1       0.3033483807E-04       1   13    1         0.1752848033E-02      0.5844059162E-02

    ------------------------------------------------
       NWT REQUIRED            3 OUTER ITERATIONS 
       AND A TOTAL OF          5 INNER ITERATIONS.
    ------------------------------------------------

 NO OUTPUT CONTROL FOR STRESS PERIOD   40   TIME STEP   21
 
 SOLVING FOR HEAD 
                                                   Max.-Head-Change                         Max.-Flux-Residual
  Residual-Control   Outer-Iter.   Inner-Iter.     Column Row Layer    Maximum-Head-Change  Column Row Layer    Maximum-Flux-Residual          L2-NORM 
          0                 1           2             1   13     1       0.4683569177E-02       1   13    1         0.2560856925E+00      0.8322094580E+00
          0                 2           2             1   13     1      -0.4424375904E-03       1   13    1        -0.2487162828E-01      0.8258992544E-01
          0                 3           1             1    1     1       0.2896221119E-04       1   13    1         0.1671802032E-02      0.5723563676E-02

    ------------------------------------------------
       NWT REQUIRED            3 OUTER ITERATIONS 
       AND A TOTAL OF          5 INNER ITERATIONS.
    ------------------------------------------------

 NO OUTPUT CONTROL FOR STRESS PERIOD   40   TIME STEP   22
 
 SOLVING FOR HEAD 
                                                   Max.-Head-Change                         Max.-Flux-Residual
  Residual-Control   Outer-Iter.   Inner-Iter.     Column Row Layer    Maximum-Head-Change  Column Row Layer    Maximum-Flux-Residual          L2-NORM 
          0                 1           2             1   13     1       0.4454381951E-02       1   13    1         0.2435919412E+00      0.8148437825E+00
          0                 2           2             1    1     1      -0.4247617295E-03       1   13    1        -0.2367580794E-01      0.8092749027E-01
          0                 3           1             1    1     1       0.2892469303E-04       1   13    1         0.1592735559E-02      0.5614087967E-02

    ------------------------------------------------
       NWT REQUIRED            3 OUTER ITERATIONS 
       AND A TOTAL OF          5 INNER ITERATIONS.
    ------------------------------------------------

 NO OUTPUT CONTROL FOR STRESS PERIOD   40   TIME STEP   23
 
 SOLVING FOR HEAD 
                                                   Max.-Head-Change                         Max.-Flux-Residual
  Residual-Control   Outer-Iter.   Inner-Iter.     Column Row Layer    Maximum-Head-Change  Column Row Layer    Maximum-Flux-Residual          L2-NORM 
          0                 1           2             1    1     1       0.4361082667E-02       1   13    1         0.2316559530E+00      0.7992104183E+00
          0                 2           2             1    1     1      -0.4242150750E-03       1    1    1        -0.2264507214E-01      0.7943011202E-01
          0                 3           1             1    1     1       0.2888746717E-04       1    1    1         0.1585155317E-02      0.5514972893E-02

    ------------------------------------------------
       NWT REQUIRED            3 OUTER ITERATIONS 
       AND A TOTAL OF          5 INNER ITERATIONS.
    ------------------------------------------------

 NO OUTPUT CONTROL FOR STRESS PERIOD   40   TIME STEP   24
 
 SOLVING FOR HEAD 
                                                   Max.-Head-Change                         Max.-Flux-Residual
  Residual-Control   Outer-Iter.   Inner-Iter.     Column Row Layer    Maximum-Head-Change  Column Row Layer    Maximum-Flux-Residual          L2-NORM 
          0                 1           2             1    1     1       0.4355460435E-02       1    1    1         0.2261577040E+00      0.7851236960E+00
          0                 2           2             1    1     1      -0.4236681823E-03       1    1    1        -0.2261581320E-01      0.7807821198E-01
          0                 3           1             1    1     1       0.2885022592E-04       1    1    1         0.1583107189E-02      0.5425373877E-02

    ------------------------------------------------
       NWT REQUIRED            3 OUTER ITERATIONS 
       AND A TOTAL OF          5 INNER ITERATIONS.
    ------------------------------------------------

 NO OUTPUT CONTROL FOR STRESS PERIOD   40   TIME STEP   25
 
 SOLVING FOR HEAD 
                                                   Max.-Head-Change                         Max.-Flux-Residual
  Residual-Control   Outer-Iter.   Inner-Iter.     Column Row Layer    Maximum-Head-Change  Column Row Layer    Maximum-Flux-Residual          L2-NORM 
          0                 1           2             1    1     1       0.4349882285E-02       1    1    1         0.2258674115E+00      0.7723864663E+00
          0                 2           2             1    1     1      -0.4231255774E-03       1    1    1        -0.2258678375E-01      0.7685555265E-01
          0                 3           1             1    1     1       0.2881327673E-04       1    1    1         0.1581075130E-02      0.5344510459E-02

    ------------------------------------------------
       NWT REQUIRED            3 OUTER ITERATIONS 
       AND A TOTAL OF          5 INNER ITERATIONS.
    ------------------------------------------------

 NO OUTPUT CONTROL FOR STRESS PERIOD   40   TIME STEP   26
 
 SOLVING FOR HEAD 
                                                   Max.-Head-Change                         Max.-Flux-Residual
  Residual-Control   Outer-Iter.   Inner-Iter.     Column Row Layer    Maximum-Head-Change  Column Row Layer    Maximum-Flux-Residual          L2-NORM 
          0                 1           2             1    1     1       0.4344301404E-02       1    1    1         0.2255769819E+00      0.7608542292E+00
          0                 2           2             1    1     1      -0.4225827068E-03       1    1    1        -0.2255774058E-01      0.7574720724E-01
          0                 3           1             1    1     1       0.2877630931E-04       1    1    1         0.1579042117E-02      0.5271088668E-02

    ------------------------------------------------
       NWT REQUIRED            3 OUTER ITERATIONS 
       AND A TOTAL OF          5 INNER ITERATIONS.
    ------------------------------------------------

 NO OUTPUT CONTROL FOR STRESS PERIOD   40   TIME STEP   27
 
 SOLVING FOR HEAD 
                                                   Max.-Head-Change                         Max.-Flux-Residual
  Residual-Control   Outer-Iter.   Inner-Iter.     Column Row Layer    Maximum-Head-Change  Column Row Layer    Maximum-Flux-Residual          L2-NORM 
          0                 1           2             1    1     1       0.4338741064E-02       1    1    1         0.2252876220E+00      0.7503922927E+00
          0                 2           2             1    1     1      -0.4220418343E-03       1    1    1        -0.2252880438E-01      0.7474008079E-01
          0                 3           1             1    1     1       0.2873947821E-04       1    1    1         0.1577016600E-02      0.5204015417E-02

    ------------------------------------------------
       NWT REQUIRED            3 OUTER ITERATIONS 
       AND A TOTAL OF          5 INNER ITERATIONS.
    ------------------------------------------------

 NO OUTPUT CONTROL FOR STRESS PERIOD   40   TIME STEP   28
 
 SOLVING FOR HEAD 
                                                   Max.-Head-Change                         Max.-Flux-Residual
  Residual-Control   Outer-Iter.   Inner-Iter.     Column Row Layer    Maximum-Head-Change  Column Row Layer    Maximum-Flux-Residual          L2-NORM 
          0                 1           2             1    1     1       0.4333224458E-02       1    1    1         0.2250005388E+00      0.7408684543E+00
          0                 2           2             1    1     1      -0.4215052155E-03       1    1    1        -0.2250009586E-01      0.7382241009E-01
          0                 3           1             1    1     1       0.2870293633E-04       1    1    1         0.1575006979E-02      0.5143588311E-02

    ------------------------------------------------
       NWT REQUIRED            3 OUTER ITERATIONS 
       AND A TOTAL OF          5 INNER ITERATIONS.
    ------------------------------------------------

 NO OUTPUT CONTROL FOR STRESS PERIOD   40   TIME STEP   29
 
 SOLVING FOR HEAD 
                                                   Max.-Head-Change                         Max.-Flux-Residual
  Residual-Control   Outer-Iter.   Inner-Iter.     Column Row Layer    Maximum-Head-Change  Column Row Layer    Maximum-Flux-Residual          L2-NORM 
          0                 1           2             1    1     1       0.4327704789E-02       1    1    1         0.2247132998E+00      0.7321705064E+00
          0                 2           2             1    1     1      -0.4209682994E-03       1    1    1        -0.2247137175E-01      0.7298305025E-01
          0                 3           1             1    1     1       0.2866637457E-04       1    1    1         0.1572996312E-02      0.5087599930E-02

    ------------------------------------------------
       NWT REQUIRED            3 OUTER ITERATIONS 
       AND A TOTAL OF          5 INNER ITERATIONS.
    ------------------------------------------------

 NO OUTPUT CONTROL FOR STRESS PERIOD   40   TIME STEP   30



 STREAM LISTING     PERIOD     40   STEP       30

 LAYER ROW COL. STREAM  RCH.  FLOW INTO     FLOW TO   FLOW OUT OF   OVRLND.     DIRECT     STREAM       STREAM     STREAM     STREAM   STREAMBED  STREAMBED
                SEG.NO.  NO.  STRM. RCH.    AQUIFER    STRM. RCH.    RUNOFF     PRECIP       ET          HEAD       DEPTH      WIDTH   CONDCTNC.   GRADIENT

   1    1    1     1     1    7.3498E+01  4.1744E-01   7.3080E+01  0.000E+00  0.000E+00  0.000E+00  1.09473E+03  1.681E+00  1.982E+01  8.917E-02  1.560E+00
   1    2    2     1     2    7.3080E+01  6.4665E-01   7.2434E+01  0.000E+00  0.000E+00  0.000E+00  1.08973E+03  1.675E+00  1.976E+01  1.383E-01  1.558E+00
   1    3    3     1     3    7.2434E+01  5.5165E-01   7.1882E+01  0.000E+00  0.000E+00  0.000E+00  1.08409E+03  1.669E+00  1.969E+01  1.182E-01  1.556E+00
   1    3    4     1     4    7.1882E+01  5.0813E-01   7.1374E+01  0.000E+00  0.000E+00  0.000E+00  1.07907E+03  1.663E+00  1.963E+01  1.090E-01  1.554E+00
   1    4    5     2     1    6.9374E+01  4.0746E-01   6.8966E+01  0.000E+00  0.000E+00  0.000E+00  1.07416E+03  2.224E+00  1.200E+01  7.800E-02  1.741E+00
   1    5    6     2     2    6.8966E+01  3.1301E-01   6.8653E+01  0.000E+00  0.000E+00  0.000E+00  1.06873E+03  2.217E+00  1.200E+01  6.000E-02  1.739E+00
   1    6    6     2     3    6.8653E+01  3.1265E-01   6.8341E+01  0.000E+00  0.000E+00  0.000E+00  1.06400E+03  2.211E+00  1.200E+01  6.000E-02  1.737E+00
   1    7    6     2     4    6.8341E+01  3.1228E-01   6.8028E+01  0.000E+00  0.000E+00  0.000E+00  1.05928E+03  2.205E+00  1.200E+01  6.000E-02  1.735E+00
   1    8    6     2     5    6.8028E+01  3.1192E-01   6.7717E+01  0.000E+00  0.000E+00  0.000E+00  1.05456E+03  2.199E+00  1.200E+01  6.000E-02  1.733E+00
   1    3    5     3     1    2.0000E+00  2.8252E-01   1.7175E+00  0.000E+00  0.000E+00  0.000E+00  1.07555E+03  1.909E+00  9.636E+00  7.227E-02  1.955E+00
   1    3    6     3     2    1.7175E+00  2.4905E-01   1.4684E+00  0.000E+00  0.000E+00  0.000E+00  1.07264E+03  1.727E+00  8.909E+00  6.682E-02  1.864E+00
   1    3    7     3     3    1.4684E+00  1.9718E-01   1.2712E+00  0.000E+00  0.000E+00  0.000E+00  1.06987E+03  1.555E+00  8.218E+00  5.547E-02  1.777E+00
   1    4    8     3     4    1.2712E+00  2.2567E-01   1.0456E+00  0.000E+00  0.000E+00  0.000E+00  1.06682E+03  1.364E+00  7.455E+00  6.709E-02  1.682E+00
   1    5    8     3     5    1.0456E+00  1.5790E-01   8.8768E-01  0.000E+00  0.000E+00  0.000E+00  1.06362E+03  1.164E+00  6.655E+00  4.991E-02  1.582E+00
   1    6    8     3     6    8.8768E-01  5.5980E-02   8.3170E-01  0.000E+00  0.000E+00  0.000E+00  1.06158E+03  1.036E+00  6.145E+00  1.844E-02  1.518E+00
   1    5   10     4     1    1.0000E+01  9.0919E-02   9.9091E+00  0.000E+00  0.000E+00  0.000E+00  1.07836E+03  6.368E-01  1.000E+01  2.500E-02  1.212E+00
   1    5    9     4     2    9.9091E+00  1.8158E-01   9.7275E+00  0.000E+00  0.000E+00  0.000E+00  1.07154E+03  6.315E-01  1.000E+01  5.000E-02  1.211E+00
   1    6    8     4     3    9.7275E+00  1.2689E-01   9.6006E+00  0.000E+00  0.000E+00  0.000E+00  1.06381E+03  6.256E-01  1.000E+01  3.500E-02  1.209E+00
   1    6    8     5     1    1.0432E+01  2.2686E-01   1.0205E+01  0.000E+00  0.000E+00  0.000E+00  1.05868E+03  6.790E-01  1.542E+01  6.166E-02  1.226E+00
   1    7    7     5     2    1.0205E+01  2.7894E-01   9.9265E+00  0.000E+00  0.000E+00  0.000E+00  1.05417E+03  6.732E-01  1.519E+01  7.594E-02  1.224E+00
   1    8    7     5     3    9.9265E+00  1.9221E-01   9.7343E+00  0.000E+00  0.000E+00  0.000E+00  1.04992E+03  6.676E-01  1.497E+01  5.241E-02  1.223E+00
   1    8    6     5     4    9.7343E+00  1.3577E-01   9.5985E+00  0.000E+00  0.000E+00  0.000E+00  1.04691E+03  6.637E-01  1.482E+01  3.706E-02  1.221E+00
   1    9    6     6     1    7.7315E+01  3.2406E-01   7.6991E+01  0.000E+00  0.000E+00  0.000E+00  1.04513E+03  2.401E+00  1.200E+01  6.000E-02  1.800E+00
   1   10    7     6     2    7.6991E+01  3.2369E-01   7.6667E+01  0.000E+00  0.000E+00  0.000E+00  1.04058E+03  2.395E+00  1.200E+01  6.000E-02  1.798E+00
   1   11    7     6     3    7.6667E+01  3.2333E-01   7.6344E+01  0.000E+00  0.000E+00  0.000E+00  1.03603E+03  2.389E+00  1.200E+01  6.000E-02  1.796E+00
   1   12    7     6     4    7.6344E+01  3.2297E-01   7.6021E+01  0.000E+00  0.000E+00  0.000E+00  1.03147E+03  2.383E+00  1.200E+01  6.000E-02  1.794E+00
   1   13    7     6     5    7.6021E+01  3.2337E-02   7.5989E+01  0.000E+00  0.000E+00  0.000E+00  1.02829E+03  2.379E+00  1.200E+01  2.400E-02  4.491E-01
   1   14    9     7     1    1.5000E+02  1.3516E+00   1.4865E+02  0.000E+00  0.000E+00  0.000E+00  1.03987E+03  2.288E+00  5.529E+01  5.593E-01  8.056E-01
   1   13    8     7     2    1.4865E+02  1.8834E+00   1.4676E+02  0.000E+00  0.000E+00  0.000E+00  1.03478E+03  2.279E+00  5.526E+01  6.148E-01  1.021E+00
   1   13    7     7     3    1.4676E+02  1.5346E+00   1.4523E+02  0.000E+00  0.000E+00  0.000E+00  1.02969E+03  2.270E+00  5.521E+01  5.584E-01  9.160E-01
   1   13    6     8     1    2.2122E+02  1.1999E+00   2.2002E+02  0.000E+00  0.000E+00  0.000E+00  1.02513E+03  3.255E+00  4.720E+01  4.810E-01  8.315E-01
   1   13    5     8     2    2.2002E+02  3.6129E-01   2.1966E+02  0.000E+00  0.000E+00  0.000E+00  1.01888E+03  3.251E+00  4.714E+01  4.804E-01  2.507E-01
   1   13    4     8     3    2.1966E+02 -1.9634E+00   2.2162E+02  0.000E+00  0.000E+00  0.000E+00  1.01263E+03  3.255E+00  4.720E+01  4.810E+00 -1.361E-01
   1   13    3     8     4    2.2162E+02 -3.3691E+00   2.2499E+02  0.000E+00  0.000E+00  0.000E+00  1.00640E+03  3.270E+00  4.742E+01  4.832E+00 -2.324E-01
   1   13    2     8     5    2.2499E+02 -2.3817E+00   2.2737E+02  0.000E+00  0.000E+00  0.000E+00  1.00016E+03  3.286E+00  4.764E+01  4.855E+00 -1.635E-01
   1   13    1     8     6    2.2737E+02 -1.8078E+00   2.2918E+02  0.000E+00  0.000E+00  0.000E+00  9.95172E+02  3.297E+00  4.781E+01  2.923E+00 -2.061E-01
   1    8    6     9     1    0.0000E+00  0.0000E+00   0.0000E+00  0.000E+00  0.000E+00  0.000E+00  1.07875E+03  0.000E+00  4.000E+00  0.000E+00  1.000E+00
   1    8    5     9     2    0.0000E+00  0.0000E+00   0.0000E+00  0.000E+00  0.000E+00  0.000E+00  1.07825E+03  0.000E+00  4.000E+00  0.000E+00  1.000E+00





UNSATURATED ZONE PACKAGE VOLUMETRIC BUDGET FOR  TIME STEP    30 STRESS PERIOD   40
  ------------------------------------------------------------------------------



     CUMULATIVE VOLUMES      L**3       RATES FOR THIS TIME STEP      L**3/T
     ------------------                 ------------------------

           IN:                                      IN:
           ---                                      ---
        INFILTRATION =  1553368736.7338          INFILTRATION =           0.8475

          OUT:                                     OUT:
          ----                                     ----
              UZF ET =  1290042351.9096                UZF ET =           0.7500
        UZF RECHARGE =    81203290.6307          UZF RECHARGE =       0.0000E+00

            IN - OUT =   182123094.1935              IN - OUT =       9.7500E-02

          STORAGE:                                 STORAGE:
          --------                                 --------
      STORAGE CHANGE =   182124252.5462        STORAGE CHANGE =       9.7500E-02

 PERCENT DISCREPANCY IS DIFFERENCE BETWEEN IN-OUT MINUS CHANGE IN STORAGE
 DIVIDED BY THE AVERAGE OF IN AND OUT TIMES 100

 PERCENT DISCREPANCY =          -0.00     PERCENT DISCREPANCY =           0.00






1
  VOLUMETRIC BUDGET FOR AGRICULTURAL FIELDS AT  END OF TIME STEP   30, STRESS PERIOD  40
  ------------------------------------------------------------------------------

     CUMULATIVE VOLUMES      L**3       RATES FOR THIS TIME STEP      L**3/T
     ------------------                 ------------------------

           IN:                                      IN:
           ---                                      ---
               AG WELLS  =   541941056.0000                 AG WELLS  =           0.0000
      DIVERSION SEGMENTS =   924417408.0000        DIVERSION SEGMENTS =           0.0000
           GW IRRIGATION =           0.0000             GW IRRIGATION =           0.0000
           SW IRRIGATION =           0.0000             SW IRRIGATION =           0.0000
        SYSTEM LOSSES GW =           0.0000          SYSTEM LOSSES GW =           0.0000
        SYSTEM LOSSES SW =           0.0000          SYSTEM LOSSES SW =           0.0000

                TOTAL IN =  1466358528.0000                  TOTAL IN =           0.0000

          OUT:                                     OUT:
          ----                                     ----
               AG WELLS  =           0.0000                 AG WELLS  =           0.0000
      DIVERSION SEGMENTS =           0.0000        DIVERSION SEGMENTS =           0.0000
           GW IRRIGATION =   541941056.0000             GW IRRIGATION =           0.0000
           SW IRRIGATION =   924435904.0000             SW IRRIGATION =           0.0000
        SYSTEM LOSSES GW =           0.0000          SYSTEM LOSSES GW =           0.0000
        SYSTEM LOSSES SW =           0.0000          SYSTEM LOSSES SW =           0.0000

               TOTAL OUT =  1466376960.0000                 TOTAL OUT =           0.0000

                IN - OUT =      -18432.0000                  IN - OUT =           0.0000

     PERCENT DISCREPANCY =          -0.00         PERCENT DISCREPANCY =           0.00



1
  VOLUMETRIC BUDGET FOR ENTIRE MODEL AT END OF TIME STEP   30, STRESS PERIOD  40
  ------------------------------------------------------------------------------

     CUMULATIVE VOLUMES      L**3       RATES FOR THIS TIME STEP      L**3/T
     ------------------                 ------------------------

           IN:                                      IN:
           ---                                      ---
             STORAGE     =   913270144.0000               STORAGE     =           0.7003
       CONSTANT HEAD     =           0.0000         CONSTANT HEAD     =           0.0000
     HEAD DEP BOUNDS     =    29363212.0000       HEAD DEP BOUNDS     =           0.2868
      STREAM LEAKAGE     =  1235954048.0000        STREAM LEAKAGE     =          13.8400
        UZF RECHARGE     =    81203288.0000          UZF RECHARGE     =           0.0000
               GW ET     =           0.0000                 GW ET     =           0.0000
     SURFACE LEAKAGE     =           0.0000       SURFACE LEAKAGE     =           0.0000
           AG WELLS      =           0.0000             AG WELLS      =           0.0000

                TOTAL IN =  2259790592.0000                  TOTAL IN =          14.8271

          OUT:                                     OUT:
          ----                                     ----
             STORAGE     =   597114944.0000               STORAGE     =           5.0083
       CONSTANT HEAD     =           0.0000         CONSTANT HEAD     =           0.0000
     HEAD DEP BOUNDS     =    29838646.0000       HEAD DEP BOUNDS     =           0.2960
      STREAM LEAKAGE     =  1088233216.0000        STREAM LEAKAGE     =           9.5220
        UZF RECHARGE     =           0.0000          UZF RECHARGE     =           0.0000
               GW ET     =     2675819.0000                 GW ET     =       1.9647E-03
     SURFACE LEAKAGE     =           0.0000       SURFACE LEAKAGE     =           0.0000
           AG WELLS      =   541941056.0000             AG WELLS      =           0.0000

               TOTAL OUT =  2259803648.0000                 TOTAL OUT =          14.8283

                IN - OUT =      -13056.0000                  IN - OUT =      -1.2283E-03

     PERCENT DISCREPANCY =          -0.00         PERCENT DISCREPANCY =          -0.01






         TIME SUMMARY AT END OF TIME STEP   30 IN STRESS PERIOD   40
                    SECONDS     MINUTES      HOURS       DAYS        YEARS
                    -----------------------------------------------------------
   TIME STEP LENGTH  87667.      1461.1      24.352      1.0147     2.77799E-03
 STRESS PERIOD TIME 2.63000E+06  43833.      730.56      30.440     8.33397E-02
         TOTAL TIME 1.02656E+08 1.71093E+06  28515.      1188.1      3.2530    
1
1
                            STRESS PERIOD NO.   41, LENGTH =   2630000.    
                            -----------------------------------------------

                              NUMBER OF TIME STEPS =    30

                               MULTIPLIER FOR DELT =     1.000

                            INITIAL TIME STEP SIZE =   87666.66    

 REUSING NON-PARAMETER GHB CELLS FROM LAST STRESS PERIOD

      2 GHB CELLS

 REUSING STREAM SEGMENT DATA FROM LAST STRESS PERIOD



            AREAL INFILTRATION RATE
 READING ON UNIT   19 WITH FORMAT: (FREE)              

            1           2           3           4           5           6           7           8           9          10
 ........................................................................................................................
   1   1.0000E-10  2.0000E-10   0.000       0.000       0.000       0.000       0.000       0.000       0.000       0.000    
   2   2.0000E-10  1.0000E-10  2.0000E-10   0.000       0.000      8.0000E-10  8.0000E-10  5.0000E-10   0.000       0.000    
   3    0.000      5.0000E-10  1.0000E-10  1.0000E-10  8.0000E-10  8.0000E-10  5.0000E-10  5.0000E-10   0.000       0.000    
   4   8.0000E-10  5.0000E-10  1.0000E-10  1.0000E-10  1.0000E-10  1.0000E-10  1.0000E-10  1.0000E-10  2.0000E-10   0.000    
   5   8.0000E-10  5.0000E-10  1.0000E-10  1.0000E-10  1.0000E-10  1.0000E-10  1.0000E-10  1.0000E-10  1.0000E-10  1.0000E-10
   6   8.0000E-10  5.0000E-10  5.0000E-10  2.0000E-10  2.0000E-10  1.0000E-10  1.0000E-10  1.0000E-10  1.0000E-10  5.0000E-10
   7   8.0000E-10  5.0000E-10  5.0000E-10  2.0000E-10  2.0000E-10  1.0000E-10  1.0000E-10  2.0000E-10  2.0000E-10   0.000    
   8    0.000      5.0000E-10  5.0000E-10  2.0000E-10  2.0000E-10  1.0000E-10  1.0000E-10  2.0000E-10  5.0000E-10   0.000    
   9    0.000      5.0000E-10  5.0000E-10  2.0000E-10  2.0000E-10  1.0000E-10  1.0000E-10  2.0000E-10  5.0000E-10   0.000    
  10    0.000      5.0000E-10  5.0000E-10  2.0000E-10  2.0000E-10  1.0000E-10  1.0000E-10  2.0000E-10  5.0000E-10  8.0000E-10
  11    0.000      1.0000E-10  1.0000E-10  1.0000E-10  1.0000E-10  1.0000E-10  1.0000E-10  2.0000E-10  5.0000E-10   0.000    
  12   1.0000E-10  1.0000E-10  1.0000E-10  1.0000E-10  1.0000E-10  1.0000E-10  1.0000E-10  1.0000E-10  2.0000E-10   0.000    
  13   1.0000E-10  1.0000E-10  2.0000E-10  2.0000E-10  2.0000E-10  2.0000E-10  2.0000E-10  1.0000E-10  1.0000E-10   0.000    
  14    0.000      2.0000E-10  5.0000E-10  5.0000E-10  5.0000E-10  5.0000E-10  5.0000E-10  2.0000E-10  1.0000E-10   0.000    
  15    0.000       0.000      8.0000E-10  8.0000E-10  8.0000E-10  8.0000E-10   0.000       0.000       0.000       0.000    

                  ET RATE =  2.500000E-08

 USING ET EXTINCTION DEPTH FROM PREVIOUS STRESS PERIOD. CURRENT PERIOD IS:      41

 USING EXTINCTION WATER CONTENT FROM PREVIOUS STRESS PERIOD. CURRENT PERIOD IS:      41

 USING AIR ENTRY PRESSURE FROM PREVIOUS STRESS PERIOD. CURRENT PERIOD IS:      41

 USING ROOT PRESSURE HEAD FROM PREVIOUS STRESS PERIOD. CURRENT PERIOD IS:      41

 USING ROOT ACTIVITY FROM PREVIOUS STRESS PERIOD. CURRENT PERIOD IS:      41

 PROCESSING AG STRESS PERIOD DATA

 READING AG STRESS PERIOD DATA

 READING IRRIGATION SEGMENT

 READING IRRIGATION WELL

 READING SUPPLEMENTAL WELL

 END PROCESSING AG STRESS PERIOD DATA OPTIONS
 
 SOLVING FOR HEAD 
                                                   Max.-Head-Change                         Max.-Flux-Residual
  Residual-Control   Outer-Iter.   Inner-Iter.     Column Row Layer    Maximum-Head-Change  Column Row Layer    Maximum-Flux-Residual          L2-NORM 
          0                 1           2             1    1     1       0.4322205313E-02       1    1    1         0.2244271137E+00      0.7153367446E+00
          0                 2           2             1    1     1      -0.4204333473E-03       1    1    1        -0.2244275295E-01      0.7145360369E-01
          0                 3           1             1    1     1       0.2862994606E-04       1    1    1         0.1570992991E-02      0.4994353096E-02

    ------------------------------------------------
       NWT REQUIRED            3 OUTER ITERATIONS 
       AND A TOTAL OF          5 INNER ITERATIONS.
    ------------------------------------------------

 NO OUTPUT CONTROL FOR STRESS PERIOD   41   TIME STEP    1
 
 SOLVING FOR HEAD 
                                                   Max.-Head-Change                         Max.-Flux-Residual
  Residual-Control   Outer-Iter.   Inner-Iter.     Column Row Layer    Maximum-Head-Change  Column Row Layer    Maximum-Flux-Residual          L2-NORM 
          0                 1           2             1    1     1       0.4316725916E-02       1    1    1         0.2241419746E+00      0.7086059764E+00
          0                 2           2             1    1     1      -0.4199003482E-03       1    1    1        -0.2241423882E-01      0.7078733600E-01
          0                 3           1             1    1     1       0.2859365079E-04       1    1    1         0.1568997005E-02      0.4948326930E-02

    ------------------------------------------------
       NWT REQUIRED            3 OUTER ITERATIONS 
       AND A TOTAL OF          5 INNER ITERATIONS.
    ------------------------------------------------

 NO OUTPUT CONTROL FOR STRESS PERIOD   41   TIME STEP    2
 
 SOLVING FOR HEAD 
                                                   Max.-Head-Change                         Max.-Flux-Residual
  Residual-Control   Outer-Iter.   Inner-Iter.     Column Row Layer    Maximum-Head-Change  Column Row Layer    Maximum-Flux-Residual          L2-NORM 
          0                 1           2             1    1     1       0.4311289825E-02       1    1    1         0.2238590888E+00      0.7024333096E+00
          0                 2           2             1    1     1      -0.4193715619E-03       1    1    1        -0.2238595006E-01      0.7017586220E-01
          0                 3           1             1    1     1       0.2855764285E-04       1    1    1         0.1567016797E-02      0.4905800102E-02

    ------------------------------------------------
       NWT REQUIRED            3 OUTER ITERATIONS 
       AND A TOTAL OF          5 INNER ITERATIONS.
    ------------------------------------------------

 NO OUTPUT CONTROL FOR STRESS PERIOD   41   TIME STEP    3
 
 SOLVING FOR HEAD 
                                                   Max.-Head-Change                         Max.-Flux-Residual
  Residual-Control   Outer-Iter.   Inner-Iter.     Column Row Layer    Maximum-Head-Change  Column Row Layer    Maximum-Flux-Residual          L2-NORM 
          0                 1           2             1    1     1       0.4226858182E-02       1    1    1         0.2194725787E+00      0.6822276003E+00
          0                 2           2             1    1     1      -0.4111586358E-03       1    1    1        -0.2194729712E-01      0.6819933758E-01
          0                 3           1             1    1     1       0.2799837302E-04       1    1    1         0.1536311093E-02      0.4771612073E-02

    ------------------------------------------------
       NWT REQUIRED            3 OUTER ITERATIONS 
       AND A TOTAL OF          5 INNER ITERATIONS.
    ------------------------------------------------

 NO OUTPUT CONTROL FOR STRESS PERIOD   41   TIME STEP    4
 
 SOLVING FOR HEAD 
                                                   Max.-Head-Change                         Max.-Flux-Residual
  Residual-Control   Outer-Iter.   Inner-Iter.     Column Row Layer    Maximum-Head-Change  Column Row Layer    Maximum-Flux-Residual          L2-NORM 
          0                 1           2             4   13     1      -0.5853075762E-02       4   13    1        -0.3458901403E+00      0.7863157709E+00
          0                 2           2             4   13     1       0.5645559406E-03       4   13    1         0.3430477428E-01      0.7761884831E-01
          0                 3           1             4   13     1      -0.3799666118E-04       4   13    1        -0.2374061827E-02      0.5339168700E-02

    ------------------------------------------------
       NWT REQUIRED            3 OUTER ITERATIONS 
       AND A TOTAL OF          5 INNER ITERATIONS.
    ------------------------------------------------

 NO OUTPUT CONTROL FOR STRESS PERIOD   41   TIME STEP    5
 
 SOLVING FOR HEAD 
                                                   Max.-Head-Change                         Max.-Flux-Residual
  Residual-Control   Outer-Iter.   Inner-Iter.     Column Row Layer    Maximum-Head-Change  Column Row Layer    Maximum-Flux-Residual          L2-NORM 
          0                 1           2             3   13     1      -0.5190425876E-02       4   13    1        -0.3041720760E+00      0.7439642014E+00
          0                 2           2             4   13     1       0.4964209382E-03       4   13    1         0.3016964095E-01      0.7353113559E-01
          0                 3           1             4   13     1      -0.3364056382E-04       4   13    1        -0.2102266714E-02      0.5073313285E-02

    ------------------------------------------------
       NWT REQUIRED            3 OUTER ITERATIONS 
       AND A TOTAL OF          5 INNER ITERATIONS.
    ------------------------------------------------

 NO OUTPUT CONTROL FOR STRESS PERIOD   41   TIME STEP    6
 
 SOLVING FOR HEAD 
                                                   Max.-Head-Change                         Max.-Flux-Residual
  Residual-Control   Outer-Iter.   Inner-Iter.     Column Row Layer    Maximum-Head-Change  Column Row Layer    Maximum-Flux-Residual          L2-NORM 
          0                 1           2             3   13     1      -0.4639456207E-02       3   13    1        -0.2700304948E+00      0.7080821495E+00
          0                 2           2             3   13     1       0.4408237137E-03       4   13    1         0.2652794128E-01      0.7007088490E-01
          0                 3           1             4   13     1      -0.2937786590E-04       4   13    1        -0.1836242844E-02      0.4837417906E-02

    ------------------------------------------------
       NWT REQUIRED            3 OUTER ITERATIONS 
       AND A TOTAL OF          5 INNER ITERATIONS.
    ------------------------------------------------

 NO OUTPUT CONTROL FOR STRESS PERIOD   41   TIME STEP    7
 
 SOLVING FOR HEAD 
                                                   Max.-Head-Change                         Max.-Flux-Residual
  Residual-Control   Outer-Iter.   Inner-Iter.     Column Row Layer    Maximum-Head-Change  Column Row Layer    Maximum-Flux-Residual          L2-NORM 
          0                 1           2             3   13     1      -0.4146397793E-02       3   13    1        -0.2413664550E+00      0.6777718649E+00
          0                 2           2             3   13     1       0.3940931716E-03       3   13    1         0.2358631595E-01      0.6715148200E-01
          0                 3           1             3   13     1      -0.2597549320E-04       4   13    1        -0.1610036517E-02      0.4642074859E-02

    ------------------------------------------------
       NWT REQUIRED            3 OUTER ITERATIONS 
       AND A TOTAL OF          5 INNER ITERATIONS.
    ------------------------------------------------

 NO OUTPUT CONTROL FOR STRESS PERIOD   41   TIME STEP    8
 
 SOLVING FOR HEAD 
                                                   Max.-Head-Change                         Max.-Flux-Residual
  Residual-Control   Outer-Iter.   Inner-Iter.     Column Row Layer    Maximum-Head-Change  Column Row Layer    Maximum-Flux-Residual          L2-NORM 
          0                 1           2             3   13     1      -0.3704952657E-02       3   13    1        -0.2157025478E+00      0.6522542437E+00
          0                 2           2             3   13     1       0.3522401461E-03       3   13    1         0.2108474402E-01      0.6469937608E-01
          0                 3           1             3   13     1      -0.2322346243E-04       3   13    1        -0.1429224392E-02      0.4480663264E-02

    ------------------------------------------------
       NWT REQUIRED            3 OUTER ITERATIONS 
       AND A TOTAL OF          5 INNER ITERATIONS.
    ------------------------------------------------

 NO OUTPUT CONTROL FOR STRESS PERIOD   41   TIME STEP    9
 
 SOLVING FOR HEAD 
                                                   Max.-Head-Change                         Max.-Flux-Residual
  Residual-Control   Outer-Iter.   Inner-Iter.     Column Row Layer    Maximum-Head-Change  Column Row Layer    Maximum-Flux-Residual          L2-NORM 
          0                 1           2             3   13     1      -0.3309957324E-02       3   13    1        -0.1927389246E+00      0.6308200412E+00
          0                 2           2             3   13     1       0.3147891485E-03       3   13    1         0.1884629902E-01      0.6264100101E-01
          0                 3           1             1    1     1       0.2088764953E-04       3   13    1        -0.1277931942E-02      0.4344164214E-02

    ------------------------------------------------
       NWT REQUIRED            3 OUTER ITERATIONS 
       AND A TOTAL OF          5 INNER ITERATIONS.
    ------------------------------------------------

 NO OUTPUT CONTROL FOR STRESS PERIOD   41   TIME STEP   10
 
 SOLVING FOR HEAD 
                                                   Max.-Head-Change                         Max.-Flux-Residual
  Residual-Control   Outer-Iter.   Inner-Iter.     Column Row Layer    Maximum-Head-Change  Column Row Layer    Maximum-Flux-Residual          L2-NORM 
          0                 1           2             1    1     1       0.3149971448E-02       3   13    1        -0.1721812101E+00      0.6128330017E+00
          0                 2           2             1    1     1      -0.3064066141E-03       3   13    1         0.1684127818E-01      0.6091474981E-01
          0                 3           1             1    1     1       0.2086515161E-04       1    1    1         0.1144704329E-02      0.4228099835E-02

    ------------------------------------------------
       NWT REQUIRED            3 OUTER ITERATIONS 
       AND A TOTAL OF          5 INNER ITERATIONS.
    ------------------------------------------------

 NO OUTPUT CONTROL FOR STRESS PERIOD   41   TIME STEP   11
 
 SOLVING FOR HEAD 
                                                   Max.-Head-Change                         Max.-Flux-Residual
  Residual-Control   Outer-Iter.   Inner-Iter.     Column Row Layer    Maximum-Head-Change  Column Row Layer    Maximum-Flux-Residual          L2-NORM 
          0                 1           2             1    1     1       0.3146562676E-02       1    1    1         0.1633516398E+00      0.5977639325E+00
          0                 2           2             1    1     1      -0.3060750322E-03       1    1    1        -0.1633518295E-01      0.5946991581E-01
          0                 3           1             1    1     1       0.2084257227E-04       1    1    1         0.1143463121E-02      0.4134869060E-02

    ------------------------------------------------
       NWT REQUIRED            3 OUTER ITERATIONS 
       AND A TOTAL OF          5 INNER ITERATIONS.
    ------------------------------------------------

 NO OUTPUT CONTROL FOR STRESS PERIOD   41   TIME STEP   12
 
 SOLVING FOR HEAD 
                                                   Max.-Head-Change                         Max.-Flux-Residual
  Residual-Control   Outer-Iter.   Inner-Iter.     Column Row Layer    Maximum-Head-Change  Column Row Layer    Maximum-Flux-Residual          L2-NORM 
          0                 1           2             1    1     1       0.3143164966E-02       1    1    1         0.1631748999E+00      0.5851292634E+00
          0                 2           2             1    1     1      -0.3057445264E-03       1    1    1        -0.1631750888E-01      0.5825862575E-01
          0                 3           1             1    1     1       0.2082006582E-04       1    1    1         0.1142225920E-02      0.4054438375E-02

    ------------------------------------------------
       NWT REQUIRED            3 OUTER ITERATIONS 
       AND A TOTAL OF          5 INNER ITERATIONS.
    ------------------------------------------------

 NO OUTPUT CONTROL FOR STRESS PERIOD   41   TIME STEP   13
 
 SOLVING FOR HEAD 
                                                   Max.-Head-Change                         Max.-Flux-Residual
  Residual-Control   Outer-Iter.   Inner-Iter.     Column Row Layer    Maximum-Head-Change  Column Row Layer    Maximum-Flux-Residual          L2-NORM 
          0                 1           2             1    1     1       0.3139801596E-02       1    1    1         0.1629999470E+00      0.5745288153E+00
          0                 2           2             1    1     1      -0.3054173611E-03       1    1    1        -0.1630001351E-01      0.5724295735E-01
          0                 3           1             1    1     1       0.2079778753E-04       1    1    1         0.1141001264E-02      0.3987977216E-02

    ------------------------------------------------
       NWT REQUIRED            3 OUTER ITERATIONS 
       AND A TOTAL OF          5 INNER ITERATIONS.
    ------------------------------------------------

 NO OUTPUT CONTROL FOR STRESS PERIOD   41   TIME STEP   14
 
 SOLVING FOR HEAD 
                                                   Max.-Head-Change                         Max.-Flux-Residual
  Residual-Control   Outer-Iter.   Inner-Iter.     Column Row Layer    Maximum-Head-Change  Column Row Layer    Maximum-Flux-Residual          L2-NORM 
          0                 1           2             1    1     1       0.3136425789E-02       1    1    1         0.1628243477E+00      0.5656154962E+00
          0                 2           2             1    1     1      -0.3050889860E-03       1    1    1        -0.1628245350E-01      0.5638839074E-01
          0                 3           1             1    1     1       0.2077542641E-04       1    1    1         0.1139772065E-02      0.3931429673E-02

    ------------------------------------------------
       NWT REQUIRED            3 OUTER ITERATIONS 
       AND A TOTAL OF          5 INNER ITERATIONS.
    ------------------------------------------------

 NO OUTPUT CONTROL FOR STRESS PERIOD   41   TIME STEP   15
 
 SOLVING FOR HEAD 
                                                   Max.-Head-Change                         Max.-Flux-Residual
  Residual-Control   Outer-Iter.   Inner-Iter.     Column Row Layer    Maximum-Head-Change  Column Row Layer    Maximum-Flux-Residual          L2-NORM 
          0                 1           2             1    1     1       0.3133084215E-02       1    1    1         0.1626505307E+00      0.5581028746E+00
          0                 2           2             1    1     1      -0.3047639406E-03       1    1    1        -0.1626507172E-01      0.5566809054E-01
          0                 3           1             1    1     1       0.2075329154E-04       1    1    1         0.1138555332E-02      0.3883701585E-02

    ------------------------------------------------
       NWT REQUIRED            3 OUTER ITERATIONS 
       AND A TOTAL OF          5 INNER ITERATIONS.
    ------------------------------------------------

 NO OUTPUT CONTROL FOR STRESS PERIOD   41   TIME STEP   16
 
 SOLVING FOR HEAD 
                                                   Max.-Head-Change                         Max.-Flux-Residual
  Residual-Control   Outer-Iter.   Inner-Iter.     Column Row Layer    Maximum-Head-Change  Column Row Layer    Maximum-Flux-Residual          L2-NORM 
          0                 1           2             1    1     1       0.3129730071E-02       1    1    1         0.1624760612E+00      0.5517540537E+00
          0                 2           2             1    1     1      -0.3044376729E-03       1    1    1        -0.1624762470E-01      0.5505832914E-01
          0                 3           1             1    1     1       0.2073107407E-04       1    1    1         0.1137334042E-02      0.3843292613E-02

    ------------------------------------------------
       NWT REQUIRED            3 OUTER ITERATIONS 
       AND A TOTAL OF          5 INNER ITERATIONS.
    ------------------------------------------------

 NO OUTPUT CONTROL FOR STRESS PERIOD   41   TIME STEP   17
 
 SOLVING FOR HEAD 
                                                   Max.-Head-Change                         Max.-Flux-Residual
  Residual-Control   Outer-Iter.   Inner-Iter.     Column Row Layer    Maximum-Head-Change  Column Row Layer    Maximum-Flux-Residual          L2-NORM 
          0                 1           2             1    1     1       0.3126386684E-02       1    1    1         0.1623021537E+00      0.5463515808E+00
          0                 2           2             1    1     1      -0.3041124515E-03       1    1    1        -0.1623023388E-01      0.5453986656E-01
          0                 3           1             1    1     1       0.2070892784E-04       1    1    1         0.1136116685E-02      0.3809452302E-02

    ------------------------------------------------
       NWT REQUIRED            3 OUTER ITERATIONS 
       AND A TOTAL OF          5 INNER ITERATIONS.
    ------------------------------------------------

 NO OUTPUT CONTROL FOR STRESS PERIOD   41   TIME STEP   18
 
 SOLVING FOR HEAD 
                                                   Max.-Head-Change                         Max.-Flux-Residual
  Residual-Control   Outer-Iter.   Inner-Iter.     Column Row Layer    Maximum-Head-Change  Column Row Layer    Maximum-Flux-Residual          L2-NORM 
          0                 1           2             1    1     1       0.3123077399E-02       1    1    1         0.1621300179E+00      0.5417407315E+00
          0                 2           2             1    1     1      -0.3037905472E-03       1    1    1        -0.1621302023E-01      0.5409565657E-01
          0                 3           1             1    1     1       0.2068700740E-04       1    1    1         0.1134911734E-02      0.3779393980E-02

    ------------------------------------------------
       NWT REQUIRED            3 OUTER ITERATIONS 
       AND A TOTAL OF          5 INNER ITERATIONS.
    ------------------------------------------------

 NO OUTPUT CONTROL FOR STRESS PERIOD   41   TIME STEP   19
 
 SOLVING FOR HEAD 
                                                   Max.-Head-Change                         Max.-Flux-Residual
  Residual-Control   Outer-Iter.   Inner-Iter.     Column Row Layer    Maximum-Head-Change  Column Row Layer    Maximum-Flux-Residual          L2-NORM 
          0                 1           2             1    1     1       0.3119755366E-02       1    1    1         0.1619572223E+00      0.5377799013E+00
          0                 2           2             1    1     1      -0.3034674026E-03       1    1    1        -0.1619574058E-01      0.5371408746E-01
          0                 3           1             1    1     1       0.2066500223E-04       1    1    1         0.1133702153E-02      0.3754107831E-02

    ------------------------------------------------
       NWT REQUIRED            3 OUTER ITERATIONS 
       AND A TOTAL OF          5 INNER ITERATIONS.
    ------------------------------------------------

 NO OUTPUT CONTROL FOR STRESS PERIOD   41   TIME STEP   20
 
 SOLVING FOR HEAD 
                                                   Max.-Head-Change                         Max.-Flux-Residual
  Residual-Control   Outer-Iter.   Inner-Iter.     Column Row Layer    Maximum-Head-Change  Column Row Layer    Maximum-Flux-Residual          L2-NORM 
          0                 1           2             1    1     1       0.3116443956E-02       1    1    1         0.1617849797E+00      0.5343483638E+00
          0                 2           2             1    1     1      -0.3031452917E-03       1    1    1        -0.1617851625E-01      0.5338301564E-01
          0                 3           1             1    1     1       0.2064306783E-04       1    1    1         0.1132496448E-02      0.3732193498E-02

    ------------------------------------------------
       NWT REQUIRED            3 OUTER ITERATIONS 
       AND A TOTAL OF          5 INNER ITERATIONS.
    ------------------------------------------------

 NO OUTPUT CONTROL FOR STRESS PERIOD   41   TIME STEP   21
 
 SOLVING FOR HEAD 
                                                   Max.-Head-Change                         Max.-Flux-Residual
  Residual-Control   Outer-Iter.   Inner-Iter.     Column Row Layer    Maximum-Head-Change  Column Row Layer    Maximum-Flux-Residual          L2-NORM 
          0                 1           2             1    1     1       0.3113143089E-02       1    1    1         0.1616132879E+00      0.5313644292E+00
          0                 2           2             1    1     1      -0.3028242065E-03       1    1    1        -0.1616134701E-01      0.5309399681E-01
          0                 3           1             1    1     1       0.2062120348E-04       1    1    1         0.1131294615E-02      0.3712481451E-02

    ------------------------------------------------
       NWT REQUIRED            3 OUTER ITERATIONS 
       AND A TOTAL OF          5 INNER ITERATIONS.
    ------------------------------------------------

 NO OUTPUT CONTROL FOR STRESS PERIOD   41   TIME STEP   22
 
 SOLVING FOR HEAD 
                                                   Max.-Head-Change                         Max.-Flux-Residual
  Residual-Control   Outer-Iter.   Inner-Iter.     Column Row Layer    Maximum-Head-Change  Column Row Layer    Maximum-Flux-Residual          L2-NORM 
          0                 1           2             1    1     1       0.3109876118E-02       1    1    1         0.1614433571E+00      0.5287396024E+00
          0                 2           2             1    1     1      -0.3025064179E-03       1    1    1        -0.1614435384E-01      0.5283950972E-01
          0                 3           1             1    1     1       0.2059956325E-04       1    1    1         0.1130105093E-02      0.3695462093E-02

    ------------------------------------------------
       NWT REQUIRED            3 OUTER ITERATIONS 
       AND A TOTAL OF          5 INNER ITERATIONS.
    ------------------------------------------------

 NO OUTPUT CONTROL FOR STRESS PERIOD   41   TIME STEP   23
 
 SOLVING FOR HEAD 
                                                   Max.-Head-Change                         Max.-Flux-Residual
  Residual-Control   Outer-Iter.   Inner-Iter.     Column Row Layer    Maximum-Head-Change  Column Row Layer    Maximum-Flux-Residual          L2-NORM 
          0                 1           2             1    1     1       0.3106596209E-02       1    1    1         0.1612727551E+00      0.5264171950E+00
          0                 2           2             1    1     1      -0.3021873710E-03       1    1    1        -0.1612729356E-01      0.5261376840E-01
          0                 3           1             1    1     1       0.2057783688E-04       1    1    1         0.1128910869E-02      0.3680389657E-02

    ------------------------------------------------
       NWT REQUIRED            3 OUTER ITERATIONS 
       AND A TOTAL OF          5 INNER ITERATIONS.
    ------------------------------------------------

 NO OUTPUT CONTROL FOR STRESS PERIOD   41   TIME STEP   24
 
 SOLVING FOR HEAD 
                                                   Max.-Head-Change                         Max.-Flux-Residual
  Residual-Control   Outer-Iter.   Inner-Iter.     Column Row Layer    Maximum-Head-Change  Column Row Layer    Maximum-Flux-Residual          L2-NORM 
          0                 1           2             1    1     1       0.3103326688E-02       1    1    1         0.1611026966E+00      0.5243408840E+00
          0                 2           2             1    1     1      -0.3018693348E-03       1    1    1        -0.1611028765E-01      0.5240253998E-01
          0                 3           1             1    1     1       0.2055618010E-04       1    1    1         0.1127720459E-02      0.3666159056E-02

    ------------------------------------------------
       NWT REQUIRED            3 OUTER ITERATIONS 
       AND A TOTAL OF          5 INNER ITERATIONS.
    ------------------------------------------------

 NO OUTPUT CONTROL FOR STRESS PERIOD   41   TIME STEP   25
 
 SOLVING FOR HEAD 
                                                   Max.-Head-Change                         Max.-Flux-Residual
  Residual-Control   Outer-Iter.   Inner-Iter.     Column Row Layer    Maximum-Head-Change  Column Row Layer    Maximum-Flux-Residual          L2-NORM 
          0                 1           2             1    1     1       0.3100067530E-02       1    1    1         0.1609331767E+00      0.5224863722E+00
          0                 2           2             1    1     1      -0.3015523067E-03       1    1    1        -0.1609333559E-01      0.5223025873E-01
          0                 3           1             1    1     1       0.2053459171E-04       1    1    1         0.1126533812E-02      0.3654461009E-02

    ------------------------------------------------
       NWT REQUIRED            3 OUTER ITERATIONS 
       AND A TOTAL OF          5 INNER ITERATIONS.
    ------------------------------------------------

 NO OUTPUT CONTROL FOR STRESS PERIOD   41   TIME STEP   26
 
 SOLVING FOR HEAD 
                                                   Max.-Head-Change                         Max.-Flux-Residual
  Residual-Control   Outer-Iter.   Inner-Iter.     Column Row Layer    Maximum-Head-Change  Column Row Layer    Maximum-Flux-Residual          L2-NORM 
          0                 1           2             1    1     1       0.2935803531E-02       1    1    1         0.1523998003E+00      0.5243228548E+00
          0                 2           2             1    1     1      -0.2855738623E-03       1    1    1        -0.1523999556E-01      0.5232644227E-01
          0                 3           1             1    1     1       0.1944651924E-04       1    1    1         0.1066800008E-02      0.3653163872E-02

    ------------------------------------------------
       NWT REQUIRED            3 OUTER ITERATIONS 
       AND A TOTAL OF          5 INNER ITERATIONS.
    ------------------------------------------------

 NO OUTPUT CONTROL FOR STRESS PERIOD   41   TIME STEP   27
 
 SOLVING FOR HEAD 
                                                   Max.-Head-Change                         Max.-Flux-Residual
  Residual-Control   Outer-Iter.   Inner-Iter.     Column Row Layer    Maximum-Head-Change  Column Row Layer    Maximum-Flux-Residual          L2-NORM 
          0                 1           2             2   13     1      -0.3870570939E-02       2   13    1        -0.2186307298E+00      0.6052516883E+00
          0                 2           2             2   13     1       0.3613980906E-03       2   13    1         0.2098459798E-01      0.5986454944E-01
          0                 3           1             4   13     1      -0.2320975538E-04       4   13    1        -0.1417035949E-02      0.4129376584E-02

    ------------------------------------------------
       NWT REQUIRED            3 OUTER ITERATIONS 
       AND A TOTAL OF          5 INNER ITERATIONS.
    ------------------------------------------------

 NO OUTPUT CONTROL FOR STRESS PERIOD   41   TIME STEP   28
 
 SOLVING FOR HEAD 
                                                   Max.-Head-Change                         Max.-Flux-Residual
  Residual-Control   Outer-Iter.   Inner-Iter.     Column Row Layer    Maximum-Head-Change  Column Row Layer    Maximum-Flux-Residual          L2-NORM 
          0                 1           2             2   13     1      -0.3569077941E-02       2   13    1        -0.2016082625E+00      0.5843060273E+00
          0                 2           2             2   13     1       0.3334920002E-03       2   13    1         0.1936493405E-01      0.5786200404E-01
          0                 3           1             2   13     1      -0.2144450956E-04       2   13    1        -0.1279831885E-02      0.4000258879E-02

    ------------------------------------------------
       NWT REQUIRED            3 OUTER ITERATIONS 
       AND A TOTAL OF          5 INNER ITERATIONS.
    ------------------------------------------------

 NO OUTPUT CONTROL FOR STRESS PERIOD   41   TIME STEP   29
 
 SOLVING FOR HEAD 
                                                   Max.-Head-Change                         Max.-Flux-Residual
  Residual-Control   Outer-Iter.   Inner-Iter.     Column Row Layer    Maximum-Head-Change  Column Row Layer    Maximum-Flux-Residual          L2-NORM 
          0                 1           2             2   13     1      -0.3290735348E-02       2   13    1        -0.1858906370E+00      0.5662515236E+00
          0                 2           2             2   13     1       0.3077200013E-03       2   13    1         0.1786907095E-01      0.5613343033E-01
          0                 3           1             2   13     1      -0.1982148603E-04       2   13    1        -0.1183096592E-02      0.3884580767E-02

    ------------------------------------------------
       NWT REQUIRED            3 OUTER ITERATIONS 
       AND A TOTAL OF          5 INNER ITERATIONS.
    ------------------------------------------------

 NO OUTPUT CONTROL FOR STRESS PERIOD   41   TIME STEP   30



 STREAM LISTING     PERIOD     41   STEP       30

 LAYER ROW COL. STREAM  RCH.  FLOW INTO     FLOW TO   FLOW OUT OF   OVRLND.     DIRECT     STREAM       STREAM     STREAM     STREAM   STREAMBED  STREAMBED
                SEG.NO.  NO.  STRM. RCH.    AQUIFER    STRM. RCH.    RUNOFF     PRECIP       ET          HEAD       DEPTH      WIDTH   CONDCTNC.   GRADIENT

   1    1    1     1     1    4.7249E+01  3.2762E-01   4.6921E+01  0.000E+00  0.000E+00  0.000E+00  1.09443E+03  1.381E+00  1.662E+01  7.477E-02  1.460E+00
   1    2    2     1     2    4.6921E+01  5.0759E-01   4.6413E+01  0.000E+00  0.000E+00  0.000E+00  1.08944E+03  1.379E+00  1.656E+01  1.159E-01  1.460E+00
   1    3    3     1     3    4.6413E+01  4.3309E-01   4.5980E+01  0.000E+00  0.000E+00  0.000E+00  1.08379E+03  1.376E+00  1.650E+01  9.898E-02  1.459E+00
   1    3    4     1     4    4.5980E+01  3.9899E-01   4.5581E+01  0.000E+00  0.000E+00  0.000E+00  1.07878E+03  1.373E+00  1.644E+01  9.124E-02  1.458E+00
   1    4    5     2     1    4.3581E+01  3.6514E-01   4.3216E+01  0.000E+00  0.000E+00  0.000E+00  1.07362E+03  1.681E+00  1.200E+01  7.800E-02  1.560E+00
   1    5    6     2     2    4.3216E+01  2.8042E-01   4.2936E+01  0.000E+00  0.000E+00  0.000E+00  1.06818E+03  1.674E+00  1.200E+01  6.000E-02  1.558E+00
   1    6    6     2     3    4.2936E+01  2.8003E-01   4.2656E+01  0.000E+00  0.000E+00  0.000E+00  1.06346E+03  1.667E+00  1.200E+01  6.000E-02  1.556E+00
   1    7    6     2     4    4.2656E+01  2.7964E-01   4.2376E+01  0.000E+00  0.000E+00  0.000E+00  1.05874E+03  1.661E+00  1.200E+01  6.000E-02  1.554E+00
   1    8    6     2     5    4.2376E+01  2.7924E-01   4.2097E+01  0.000E+00  0.000E+00  0.000E+00  1.05401E+03  1.654E+00  1.200E+01  6.000E-02  1.551E+00
   1    3    5     3     1    2.0000E+00  2.8252E-01   1.7175E+00  0.000E+00  0.000E+00  0.000E+00  1.07555E+03  1.909E+00  9.636E+00  7.227E-02  1.955E+00
   1    3    6     3     2    1.7175E+00  2.4905E-01   1.4684E+00  0.000E+00  0.000E+00  0.000E+00  1.07264E+03  1.727E+00  8.909E+00  6.682E-02  1.864E+00
   1    3    7     3     3    1.4684E+00  1.9718E-01   1.2712E+00  0.000E+00  0.000E+00  0.000E+00  1.06987E+03  1.555E+00  8.218E+00  5.547E-02  1.777E+00
   1    4    8     3     4    1.2712E+00  2.2567E-01   1.0456E+00  0.000E+00  0.000E+00  0.000E+00  1.06682E+03  1.364E+00  7.455E+00  6.709E-02  1.682E+00
   1    5    8     3     5    1.0456E+00  1.5790E-01   8.8768E-01  0.000E+00  0.000E+00  0.000E+00  1.06362E+03  1.164E+00  6.655E+00  4.991E-02  1.582E+00
   1    6    8     3     6    8.8768E-01  5.5980E-02   8.3170E-01  0.000E+00  0.000E+00  0.000E+00  1.06158E+03  1.036E+00  6.145E+00  1.844E-02  1.518E+00
   1    5   10     4     1    1.0000E+01  9.0919E-02   9.9091E+00  0.000E+00  0.000E+00  0.000E+00  1.07836E+03  6.368E-01  1.000E+01  2.500E-02  1.212E+00
   1    5    9     4     2    9.9091E+00  1.8158E-01   9.7275E+00  0.000E+00  0.000E+00  0.000E+00  1.07154E+03  6.315E-01  1.000E+01  5.000E-02  1.211E+00
   1    6    8     4     3    9.7275E+00  1.2689E-01   9.6006E+00  0.000E+00  0.000E+00  0.000E+00  1.06381E+03  6.256E-01  1.000E+01  3.500E-02  1.209E+00
   1    6    8     5     1    1.0432E+01  2.2686E-01   1.0205E+01  0.000E+00  0.000E+00  0.000E+00  1.05868E+03  6.790E-01  1.542E+01  6.166E-02  1.226E+00
   1    7    7     5     2    1.0205E+01  2.7894E-01   9.9265E+00  0.000E+00  0.000E+00  0.000E+00  1.05417E+03  6.732E-01  1.519E+01  7.594E-02  1.224E+00
   1    8    7     5     3    9.9265E+00  1.9221E-01   9.7343E+00  0.000E+00  0.000E+00  0.000E+00  1.04992E+03  6.676E-01  1.497E+01  5.241E-02  1.223E+00
   1    8    6     5     4    9.7343E+00  1.3577E-01   9.5985E+00  0.000E+00  0.000E+00  0.000E+00  1.04691E+03  6.637E-01  1.482E+01  3.706E-02  1.221E+00
   1    9    6     6     1    5.1695E+01  2.9310E-01   5.1402E+01  0.000E+00  0.000E+00  0.000E+00  1.04461E+03  1.885E+00  1.200E+01  6.000E-02  1.628E+00
   1   10    7     6     2    5.1402E+01  2.9271E-01   5.1110E+01  0.000E+00  0.000E+00  0.000E+00  1.04006E+03  1.879E+00  1.200E+01  6.000E-02  1.626E+00
   1   11    7     6     3    5.1110E+01  2.9233E-01   5.0817E+01  0.000E+00  0.000E+00  0.000E+00  1.03551E+03  1.872E+00  1.200E+01  6.000E-02  1.624E+00
   1   12    7     6     4    5.0817E+01  2.9194E-01   5.0525E+01  0.000E+00  0.000E+00  0.000E+00  1.03096E+03  1.866E+00  1.200E+01  6.000E-02  1.622E+00
   1   13    7     6     5    5.0525E+01  1.9582E-02   5.0506E+01  0.000E+00  0.000E+00  0.000E+00  1.02777E+03  1.862E+00  1.200E+01  2.400E-02  2.720E-01
   1   14    9     7     1    1.5000E+02  1.3525E+00   1.4865E+02  0.000E+00  0.000E+00  0.000E+00  1.03987E+03  2.288E+00  5.529E+01  5.593E-01  8.060E-01
   1   13    8     7     2    1.4865E+02  1.8825E+00   1.4676E+02  0.000E+00  0.000E+00  0.000E+00  1.03478E+03  2.279E+00  5.526E+01  6.148E-01  1.021E+00
   1   13    7     7     3    1.4676E+02  1.5267E+00   1.4524E+02  0.000E+00  0.000E+00  0.000E+00  1.02969E+03  2.270E+00  5.521E+01  5.584E-01  9.113E-01
   1   13    6     8     1    1.9574E+02  1.0706E+00   1.9467E+02  0.000E+00  0.000E+00  0.000E+00  1.02498E+03  3.109E+00  4.509E+01  4.594E-01  7.767E-01
   1   13    5     8     2    1.9467E+02  2.6792E-01   1.9441E+02  0.000E+00  0.000E+00  0.000E+00  1.01873E+03  3.105E+00  4.503E+01  4.588E-01  1.946E-01
   1   13    4     8     3    1.9441E+02 -2.3136E+00   1.9672E+02  0.000E+00  0.000E+00  0.000E+00  1.01249E+03  3.111E+00  4.512E+01  4.597E+00 -1.677E-01
   1   13    3     8     4    1.9672E+02 -3.6173E+00   2.0034E+02  0.000E+00  0.000E+00  0.000E+00  1.00625E+03  3.129E+00  4.537E+01  4.623E+00 -2.608E-01
   1   13    2     8     5    2.0034E+02 -2.6824E+00   2.0302E+02  0.000E+00  0.000E+00  0.000E+00  1.00002E+03  3.148E+00  4.564E+01  4.651E+00 -1.923E-01
   1   13    1     8     6    2.0302E+02 -2.0710E+00   2.0509E+02  0.000E+00  0.000E+00  0.000E+00  9.95036E+02  3.161E+00  4.584E+01  2.803E+00 -2.463E-01
   1    8    6     9     1    0.0000E+00  0.0000E+00   0.0000E+00  0.000E+00  0.000E+00  0.000E+00  1.07875E+03  0.000E+00  4.000E+00  0.000E+00  1.000E+00
   1    8    5     9     2    0.0000E+00  0.0000E+00   0.0000E+00  0.000E+00  0.000E+00  0.000E+00  1.07825E+03  0.000E+00  4.000E+00  0.000E+00  1.000E+00





UNSATURATED ZONE PACKAGE VOLUMETRIC BUDGET FOR  TIME STEP    30 STRESS PERIOD   41
  ------------------------------------------------------------------------------



     CUMULATIVE VOLUMES      L**3       RATES FOR THIS TIME STEP      L**3/T
     ------------------                 ------------------------

           IN:                                      IN:
           ---                                      ---
        INFILTRATION =  1555597661.6065          INFILTRATION =           0.8475

          OUT:                                     OUT:
          ----                                     ----
              UZF ET =  1293534755.9895                UZF ET =           0.8475
        UZF RECHARGE =    81203290.6307          UZF RECHARGE =       0.0000E+00

            IN - OUT =   180859614.9863              IN - OUT =       0.0000E+00

          STORAGE:                                 STORAGE:
          --------                                 --------
      STORAGE CHANGE =   180860773.3449        STORAGE CHANGE =      -5.5466E-13

 PERCENT DISCREPANCY IS DIFFERENCE BETWEEN IN-OUT MINUS CHANGE IN STORAGE
 DIVIDED BY THE AVERAGE OF IN AND OUT TIMES 100

 PERCENT DISCREPANCY =          -0.00     PERCENT DISCREPANCY =           0.00






1
  VOLUMETRIC BUDGET FOR AGRICULTURAL FIELDS AT  END OF TIME STEP   30, STRESS PERIOD  41
  ------------------------------------------------------------------------------

     CUMULATIVE VOLUMES      L**3       RATES FOR THIS TIME STEP      L**3/T
     ------------------                 ------------------------

           IN:                                      IN:
           ---                                      ---
               AG WELLS  =   541941056.0000                 AG WELLS  =           0.0000
      DIVERSION SEGMENTS =   924417408.0000        DIVERSION SEGMENTS =           0.0000
           GW IRRIGATION =           0.0000             GW IRRIGATION =           0.0000
           SW IRRIGATION =           0.0000             SW IRRIGATION =           0.0000
        SYSTEM LOSSES GW =           0.0000          SYSTEM LOSSES GW =           0.0000
        SYSTEM LOSSES SW =           0.0000          SYSTEM LOSSES SW =           0.0000

                TOTAL IN =  1466358528.0000                  TOTAL IN =           0.0000

          OUT:                                     OUT:
          ----                                     ----
               AG WELLS  =           0.0000                 AG WELLS  =           0.0000
      DIVERSION SEGMENTS =           0.0000        DIVERSION SEGMENTS =           0.0000
           GW IRRIGATION =   541941056.0000             GW IRRIGATION =           0.0000
           SW IRRIGATION =   924435904.0000             SW IRRIGATION =           0.0000
        SYSTEM LOSSES GW =           0.0000          SYSTEM LOSSES GW =           0.0000
        SYSTEM LOSSES SW =           0.0000          SYSTEM LOSSES SW =           0.0000

               TOTAL OUT =  1466376960.0000                 TOTAL OUT =           0.0000

                IN - OUT =      -18432.0000                  IN - OUT =           0.0000

     PERCENT DISCREPANCY =          -0.00         PERCENT DISCREPANCY =           0.00



1
  VOLUMETRIC BUDGET FOR ENTIRE MODEL AT END OF TIME STEP   30, STRESS PERIOD  41
  ------------------------------------------------------------------------------

     CUMULATIVE VOLUMES      L**3       RATES FOR THIS TIME STEP      L**3/T
     ------------------                 ------------------------

           IN:                                      IN:
           ---                                      ---
             STORAGE     =   915941248.0000               STORAGE     =           1.2058
       CONSTANT HEAD     =           0.0000         CONSTANT HEAD     =           0.0000
     HEAD DEP BOUNDS     =    30117664.0000       HEAD DEP BOUNDS     =           0.2869
      STREAM LEAKAGE     =  1270766848.0000        STREAM LEAKAGE     =          12.8431
        UZF RECHARGE     =    81203288.0000          UZF RECHARGE     =           0.0000
               GW ET     =           0.0000                 GW ET     =           0.0000
     SURFACE LEAKAGE     =           0.0000       SURFACE LEAKAGE     =           0.0000
           AG WELLS      =           0.0000             AG WELLS      =           0.0000

                TOTAL IN =  2298029056.0000                  TOTAL IN =          14.3358

          OUT:                                     OUT:
          ----                                     ----
             STORAGE     =   607222208.0000               STORAGE     =           3.3114
       CONSTANT HEAD     =           0.0000         CONSTANT HEAD     =           0.0000
     HEAD DEP BOUNDS     =    30617104.0000       HEAD DEP BOUNDS     =           0.2955
      STREAM LEAKAGE     =  1115347968.0000        STREAM LEAKAGE     =          10.6843
        UZF RECHARGE     =           0.0000          UZF RECHARGE     =           0.0000
               GW ET     =     2915538.2500                 GW ET     =       4.5163E-02
     SURFACE LEAKAGE     =           0.0000       SURFACE LEAKAGE     =           0.0000
           AG WELLS      =   541941056.0000             AG WELLS      =           0.0000

               TOTAL OUT =  2298043904.0000                 TOTAL OUT =          14.3364

                IN - OUT =      -14848.0000                  IN - OUT =      -5.9795E-04

     PERCENT DISCREPANCY =          -0.00         PERCENT DISCREPANCY =          -0.00






         TIME SUMMARY AT END OF TIME STEP   30 IN STRESS PERIOD   41
                    SECONDS     MINUTES      HOURS       DAYS        YEARS
                    -----------------------------------------------------------
   TIME STEP LENGTH  87667.      1461.1      24.352      1.0147     2.77799E-03
 STRESS PERIOD TIME 2.63000E+06  43833.      730.56      30.440     8.33397E-02
         TOTAL TIME 1.05286E+08 1.75476E+06  29246.      1218.6      3.3363    
1
1
                            STRESS PERIOD NO.   42, LENGTH =   2630000.    
                            -----------------------------------------------

                              NUMBER OF TIME STEPS =    30

                               MULTIPLIER FOR DELT =     1.000

                            INITIAL TIME STEP SIZE =   87666.66    

 REUSING NON-PARAMETER GHB CELLS FROM LAST STRESS PERIOD

      2 GHB CELLS

 REUSING STREAM SEGMENT DATA FROM LAST STRESS PERIOD



            AREAL INFILTRATION RATE
 READING ON UNIT   19 WITH FORMAT: (FREE)              

            1           2           3           4           5           6           7           8           9          10
 ........................................................................................................................
   1   1.0000E-10  2.0000E-10   0.000       0.000       0.000       0.000       0.000       0.000       0.000       0.000    
   2   2.0000E-10  1.0000E-10  2.0000E-10   0.000       0.000      8.0000E-10  8.0000E-10  5.0000E-10   0.000       0.000    
   3    0.000      5.0000E-10  1.0000E-10  1.0000E-10  8.0000E-10  8.0000E-10  5.0000E-10  5.0000E-10   0.000       0.000    
   4   8.0000E-10  5.0000E-10  1.0000E-10  1.0000E-10  1.0000E-10  1.0000E-10  1.0000E-10  1.0000E-10  2.0000E-10   0.000    
   5   8.0000E-10  5.0000E-10  1.0000E-10  1.0000E-10  1.0000E-10  1.0000E-10  1.0000E-10  1.0000E-10  1.0000E-10  1.0000E-10
   6   8.0000E-10  5.0000E-10  5.0000E-10  2.0000E-10  2.0000E-10  1.0000E-10  1.0000E-10  1.0000E-10  1.0000E-10  5.0000E-10
   7   8.0000E-10  5.0000E-10  5.0000E-10  2.0000E-10  2.0000E-10  1.0000E-10  1.0000E-10  2.0000E-10  2.0000E-10   0.000    
   8    0.000      5.0000E-10  5.0000E-10  2.0000E-10  2.0000E-10  1.0000E-10  1.0000E-10  2.0000E-10  5.0000E-10   0.000    
   9    0.000      5.0000E-10  5.0000E-10  2.0000E-10  2.0000E-10  1.0000E-10  1.0000E-10  2.0000E-10  5.0000E-10   0.000    
  10    0.000      5.0000E-10  5.0000E-10  2.0000E-10  2.0000E-10  1.0000E-10  1.0000E-10  2.0000E-10  5.0000E-10  8.0000E-10
  11    0.000      1.0000E-10  1.0000E-10  1.0000E-10  1.0000E-10  1.0000E-10  1.0000E-10  2.0000E-10  5.0000E-10   0.000    
  12   1.0000E-10  1.0000E-10  1.0000E-10  1.0000E-10  1.0000E-10  1.0000E-10  1.0000E-10  1.0000E-10  2.0000E-10   0.000    
  13   1.0000E-10  1.0000E-10  2.0000E-10  2.0000E-10  2.0000E-10  2.0000E-10  2.0000E-10  1.0000E-10  1.0000E-10   0.000    
  14    0.000      2.0000E-10  5.0000E-10  5.0000E-10  5.0000E-10  5.0000E-10  5.0000E-10  2.0000E-10  1.0000E-10   0.000    
  15    0.000       0.000      8.0000E-10  8.0000E-10  8.0000E-10  8.0000E-10   0.000       0.000       0.000       0.000    

                  ET RATE =  5.000000E-08

 USING ET EXTINCTION DEPTH FROM PREVIOUS STRESS PERIOD. CURRENT PERIOD IS:      42

 USING EXTINCTION WATER CONTENT FROM PREVIOUS STRESS PERIOD. CURRENT PERIOD IS:      42

 USING AIR ENTRY PRESSURE FROM PREVIOUS STRESS PERIOD. CURRENT PERIOD IS:      42

 USING ROOT PRESSURE HEAD FROM PREVIOUS STRESS PERIOD. CURRENT PERIOD IS:      42

 USING ROOT ACTIVITY FROM PREVIOUS STRESS PERIOD. CURRENT PERIOD IS:      42

 PROCESSING AG STRESS PERIOD DATA

 READING AG STRESS PERIOD DATA

 READING IRRIGATION SEGMENT

 READING IRRIGATION WELL

 READING SUPPLEMENTAL WELL

 END PROCESSING AG STRESS PERIOD DATA OPTIONS
 
 SOLVING FOR HEAD 
                                                   Max.-Head-Change                         Max.-Flux-Residual
  Residual-Control   Outer-Iter.   Inner-Iter.     Column Row Layer    Maximum-Head-Change  Column Row Layer    Maximum-Flux-Residual          L2-NORM 
          0                 1           2             3   13     1      -0.3116895730E-02       3   13    1        -0.1846592052E+00      0.5639433654E+00
          0                 2           2             4    7     1      -0.2329633334E-01       5    6    1        -0.1252113842E+01      0.3077058856E+01
          0                 3           2             4    7     1       0.2413745521E-01       5    6    1         0.1332647846E+01      0.3274478451E+01
          0                 4           2             4    7     1      -0.9604615810E-03       5    8    1        -0.5450627033E-01      0.1358570767E+00
          0                 5           1             4   13     1      -0.1691817205E-04       4   13    1        -0.1026948653E-02      0.2393400526E-02

    ------------------------------------------------
       NWT REQUIRED            5 OUTER ITERATIONS 
       AND A TOTAL OF          9 INNER ITERATIONS.
    ------------------------------------------------

 NO OUTPUT CONTROL FOR STRESS PERIOD   42   TIME STEP    1
 
 SOLVING FOR HEAD 
                                                   Max.-Head-Change                         Max.-Flux-Residual
  Residual-Control   Outer-Iter.   Inner-Iter.     Column Row Layer    Maximum-Head-Change  Column Row Layer    Maximum-Flux-Residual          L2-NORM 
          0                 1           2             1    1     1       0.2485966106E-02       2   13    1        -0.1346434335E+00      0.5226717247E+00
          0                 2           2             1    1     1      -0.2418168602E-03       2   13    1         0.1294605784E-01      0.5197725226E-01
          0                 3           1             1    1     1       0.1646683020E-04       1    1    1         0.9032194359E-03      0.3611705506E-02

    ------------------------------------------------
       NWT REQUIRED            3 OUTER ITERATIONS 
       AND A TOTAL OF          5 INNER ITERATIONS.
    ------------------------------------------------

 NO OUTPUT CONTROL FOR STRESS PERIOD   42   TIME STEP    2
 
 SOLVING FOR HEAD 
                                                   Max.-Head-Change                         Max.-Flux-Residual
  Residual-Control   Outer-Iter.   Inner-Iter.     Column Row Layer    Maximum-Head-Change  Column Row Layer    Maximum-Flux-Residual          L2-NORM 
          0                 1           2             1    1     1       0.2483800637E-02       1    1    1         0.1289186407E+00      0.5127150599E+00
          0                 2           2             4    7     1      -0.2327222885E-01       5    6    1        -0.1250739506E+01      0.3074650935E+01
          0                 3           2             4    7     1       0.2411113723E-01       5    6    1         0.1331189319E+01      0.3270891764E+01
          0                 4           2             4    7     1      -0.9594143428E-03       5    8    1        -0.5444656311E-01      0.1357072980E+00
          0                 5           1             4   13     1      -0.1689467678E-04       4   13    1        -0.1025474000E-02      0.2391598517E-02

    ------------------------------------------------
       NWT REQUIRED            5 OUTER ITERATIONS 
       AND A TOTAL OF          9 INNER ITERATIONS.
    ------------------------------------------------

 NO OUTPUT CONTROL FOR STRESS PERIOD   42   TIME STEP    3
 
 SOLVING FOR HEAD 
                                                   Max.-Head-Change                         Max.-Flux-Residual
  Residual-Control   Outer-Iter.   Inner-Iter.     Column Row Layer    Maximum-Head-Change  Column Row Layer    Maximum-Flux-Residual          L2-NORM 
          0                 1           2             1    1     1       0.2481618147E-02       1    1    1         0.1288051877E+00      0.4876527146E+00
          0                 2           2             1    1     1      -0.2413939220E-03       1    1    1        -0.1288052853E-01      0.4864935892E-01
          0                 3           1             1    1     1       0.1643802990E-04       1    1    1         0.9016372976E-03      0.3394291561E-02

    ------------------------------------------------
       NWT REQUIRED            3 OUTER ITERATIONS 
       AND A TOTAL OF          5 INNER ITERATIONS.
    ------------------------------------------------

 NO OUTPUT CONTROL FOR STRESS PERIOD   42   TIME STEP    4
 
 SOLVING FOR HEAD 
                                                   Max.-Head-Change                         Max.-Flux-Residual
  Residual-Control   Outer-Iter.   Inner-Iter.     Column Row Layer    Maximum-Head-Change  Column Row Layer    Maximum-Flux-Residual          L2-NORM 
          0                 1           2             1    1     1       0.2479463973E-02       1    1    1         0.1286932053E+00      0.4832864372E+00
          0                 2           2             4    7     1      -0.2327414147E-01       5    6    1        -0.1250766409E+01      0.3075554570E+01
          0                 3           2             4    7     1       0.2411196668E-01       5    6    1         0.1331229826E+01      0.3270989250E+01
          0                 4           2             4    7     1      -0.9594473485E-03       5    8    1        -0.5444817513E-01      0.1357092678E+00
          0                 5           1             4   13     1      -0.1687858773E-04       4   13    1        -0.1024503982E-02      0.2390020099E-02

    ------------------------------------------------
       NWT REQUIRED            5 OUTER ITERATIONS 
       AND A TOTAL OF          9 INNER ITERATIONS.
    ------------------------------------------------

 NO OUTPUT CONTROL FOR STRESS PERIOD   42   TIME STEP    5
 
 SOLVING FOR HEAD 
                                                   Max.-Head-Change                         Max.-Flux-Residual
  Residual-Control   Outer-Iter.   Inner-Iter.     Column Row Layer    Maximum-Head-Change  Column Row Layer    Maximum-Flux-Residual          L2-NORM 
          0                 1           2             1    1     1       0.2477292726E-02       1    1    1         0.1285803375E+00      0.4705342035E+00
          0                 2           2             1    1     1      -0.2409731753E-03       1    1    1        -0.1285804344E-01      0.4702584657E-01
          0                 3           1             1    1     1       0.1640937848E-04       1    1    1         0.9000633469E-03      0.3289228730E-02

    ------------------------------------------------
       NWT REQUIRED            3 OUTER ITERATIONS 
       AND A TOTAL OF          5 INNER ITERATIONS.
    ------------------------------------------------

 NO OUTPUT CONTROL FOR STRESS PERIOD   42   TIME STEP    6
 
 SOLVING FOR HEAD 
                                                   Max.-Head-Change                         Max.-Flux-Residual
  Residual-Control   Outer-Iter.   Inner-Iter.     Column Row Layer    Maximum-Head-Change  Column Row Layer    Maximum-Flux-Residual          L2-NORM 
          0                 1           2             1    1     1       0.2475149758E-02       1    1    1         0.1284689384E+00      0.4686500962E+00
          0                 2           2             4    7     1      -0.2327541537E-01       5    6    1        -0.1250765762E+01      0.3076261820E+01
          0                 3           2             4    7     1       0.2411221925E-01       5    6    1         0.1331238960E+01      0.3271022046E+01
          0                 4           2             4    7     1      -0.9594573985E-03       5    8    1        -0.5444850526E-01      0.1356903569E+00
          0                 5           1             4   13     1      -0.1686979248E-04       4   13    1        -0.1023960994E-02      0.2381090303E-02

    ------------------------------------------------
       NWT REQUIRED            5 OUTER ITERATIONS 
       AND A TOTAL OF          9 INNER ITERATIONS.
    ------------------------------------------------

 NO OUTPUT CONTROL FOR STRESS PERIOD   42   TIME STEP    7
 
 SOLVING FOR HEAD 
                                                   Max.-Head-Change                         Max.-Flux-Residual
  Residual-Control   Outer-Iter.   Inner-Iter.     Column Row Layer    Maximum-Head-Change  Column Row Layer    Maximum-Flux-Residual          L2-NORM 
          0                 1           2             1    1     1       0.2472989669E-02       1    1    1         0.1283566514E+00      0.4647641309E+00
          0                 2           2             1    1     1      -0.2405546039E-03       1    1    1        -0.1283567476E-01      0.4647554249E-01
          0                 3           1             1    1     1       0.1638087520E-04       1    1    1         0.8984975189E-03      0.3253261439E-02

    ------------------------------------------------
       NWT REQUIRED            3 OUTER ITERATIONS 
       AND A TOTAL OF          5 INNER ITERATIONS.
    ------------------------------------------------

 NO OUTPUT CONTROL FOR STRESS PERIOD   42   TIME STEP    8
 
 SOLVING FOR HEAD 
                                                   Max.-Head-Change                         Max.-Flux-Residual
  Residual-Control   Outer-Iter.   Inner-Iter.     Column Row Layer    Maximum-Head-Change  Column Row Layer    Maximum-Flux-Residual          L2-NORM 
          0                 1           2             1    1     1       0.2470834392E-02       1    1    1         0.1282446154E+00      0.4633437267E+00
          0                 2           2             4    7     1      -0.2327660783E-01       5    6    1        -0.1250768453E+01      0.3076867389E+01
          0                 3           2             4    7     1       0.2411246839E-01       5    6    1         0.1331248447E+01      0.3271461258E+01
          0                 4           2             4    7     1      -0.9594673126E-03       5    8    1        -0.5444884506E-01      0.1350131246E+00
          0                 5           1             2   13     1      -0.1498647877E-04       2   13    1        -0.8964466169E-03      0.2055809671E-02

    ------------------------------------------------
       NWT REQUIRED            5 OUTER ITERATIONS 
       AND A TOTAL OF          9 INNER ITERATIONS.
    ------------------------------------------------

 NO OUTPUT CONTROL FOR STRESS PERIOD   42   TIME STEP    9
 
 SOLVING FOR HEAD 
                                                   Max.-Head-Change                         Max.-Flux-Residual
  Residual-Control   Outer-Iter.   Inner-Iter.     Column Row Layer    Maximum-Head-Change  Column Row Layer    Maximum-Flux-Residual          L2-NORM 
          0                 1           2             1    1     1       0.2468708797E-02       1    1    1         0.1281341214E+00      0.4655915034E+00
          0                 2           2             1    1     1      -0.2401381910E-03       1    1    1        -0.1281342169E-01      0.4654715730E-01
          0                 3           1             1    1     1       0.1635251914E-04       1    1    1         0.8969398207E-03      0.3257253622E-02

    ------------------------------------------------
       NWT REQUIRED            3 OUTER ITERATIONS 
       AND A TOTAL OF          5 INNER ITERATIONS.
    ------------------------------------------------

 NO OUTPUT CONTROL FOR STRESS PERIOD   42   TIME STEP   10
 
 SOLVING FOR HEAD 
                                                   Max.-Head-Change                         Max.-Flux-Residual
  Residual-Control   Outer-Iter.   Inner-Iter.     Column Row Layer    Maximum-Head-Change  Column Row Layer    Maximum-Flux-Residual          L2-NORM 
          0                 1           2             1    1     1       0.2466564535E-02       1    1    1         0.1280226582E+00      0.4635004749E+00
          0                 2           2             4    7     1      -0.2327774657E-01       5    6    1        -0.1250770806E+01      0.3077383218E+01
          0                 3           2             4    7     1       0.2411271168E-01       5    6    1         0.1331257791E+01      0.3271695496E+01
          0                 4           2             4    7     1      -0.9594769936E-03       5    8    1        -0.5444918824E-01      0.1346864766E+00
          0                 5           1             4    7     1       0.1183075157E-04       5    8    1         0.6900370875E-03      0.1885588136E-02

    ------------------------------------------------
       NWT REQUIRED            5 OUTER ITERATIONS 
       AND A TOTAL OF          9 INNER ITERATIONS.
    ------------------------------------------------

 NO OUTPUT CONTROL FOR STRESS PERIOD   42   TIME STEP   11
 
 SOLVING FOR HEAD 
                                                   Max.-Head-Change                         Max.-Flux-Residual
  Residual-Control   Outer-Iter.   Inner-Iter.     Column Row Layer    Maximum-Head-Change  Column Row Layer    Maximum-Flux-Residual          L2-NORM 
          0                 1           2             1    1     1       0.2464449931E-02       1    1    1         0.1279127353E+00      0.4698877944E+00
          0                 2           2             1    1     1      -0.2397239183E-03       1    1    1        -0.1279128302E-01      0.4694485586E-01
          0                 3           1             1    1     1       0.1632430840E-04       1    1    1         0.8953900962E-03      0.3282348397E-02

    ------------------------------------------------
       NWT REQUIRED            3 OUTER ITERATIONS 
       AND A TOTAL OF          5 INNER ITERATIONS.
    ------------------------------------------------

 NO OUTPUT CONTROL FOR STRESS PERIOD   42   TIME STEP   12
 
 SOLVING FOR HEAD 
                                                   Max.-Head-Change                         Max.-Flux-Residual
  Residual-Control   Outer-Iter.   Inner-Iter.     Column Row Layer    Maximum-Head-Change  Column Row Layer    Maximum-Flux-Residual          L2-NORM 
          0                 1           2             1    1     1       0.2462316619E-02       1    1    1         0.1278018421E+00      0.4665927736E+00
          0                 2           2             4    7     1      -0.2327878204E-01       5    6    1        -0.1250774304E+01      0.3077822775E+01
          0                 3           2             4    7     1       0.2411294572E-01       5    6    1         0.1331267095E+01      0.3271728298E+01
          0                 4           2             4    7     1      -0.9594863068E-03       5    8    1        -0.5444952979E-01      0.1346749128E+00
          0                 5           1             4    7     1       0.1183086650E-04       5    8    1         0.6900414144E-03      0.1922275879E-02

    ------------------------------------------------
       NWT REQUIRED            5 OUTER ITERATIONS 
       AND A TOTAL OF          9 INNER ITERATIONS.
    ------------------------------------------------

 NO OUTPUT CONTROL FOR STRESS PERIOD   42   TIME STEP   13
 
 SOLVING FOR HEAD 
                                                   Max.-Head-Change                         Max.-Flux-Residual
  Residual-Control   Outer-Iter.   Inner-Iter.     Column Row Layer    Maximum-Head-Change  Column Row Layer    Maximum-Flux-Residual          L2-NORM 
          0                 1           2             1    1     1       0.2460189513E-02       1    1    1         0.1276912708E+00      0.4757183049E+00
          0                 2           2             1    1     1      -0.2393094952E-03       1    1    1        -0.1276913652E-01      0.4748689171E-01
          0                 3           1             1    1     1       0.1629608795E-04       1    1    1         0.8938398494E-03      0.3316553870E-02

    ------------------------------------------------
       NWT REQUIRED            3 OUTER ITERATIONS 
       AND A TOTAL OF          5 INNER ITERATIONS.
    ------------------------------------------------

 NO OUTPUT CONTROL FOR STRESS PERIOD   42   TIME STEP   14
 
 SOLVING FOR HEAD 
                                                   Max.-Head-Change                         Max.-Flux-Residual
  Residual-Control   Outer-Iter.   Inner-Iter.     Column Row Layer    Maximum-Head-Change  Column Row Layer    Maximum-Flux-Residual          L2-NORM 
          0                 1           2             1    1     1       0.2458090525E-02       1    1    1         0.1275821616E+00      0.4710371898E+00
          0                 2           2             4    7     1      -0.2327977378E-01       5    6    1        -0.1250778812E+01      0.3078198074E+01
          0                 3           2             4    7     1       0.2411317461E-01       5    6    1         0.1331276352E+01      0.3271759427E+01
          0                 4           2             4    7     1      -0.9594954147E-03       5    8    1        -0.5444987139E-01      0.1344455601E+00
          0                 5           1             4    7     1       0.1183097829E-04       5    8    1         0.6900457483E-03      0.1861809537E-02

    ------------------------------------------------
       NWT REQUIRED            5 OUTER ITERATIONS 
       AND A TOTAL OF          9 INNER ITERATIONS.
    ------------------------------------------------

 NO OUTPUT CONTROL FOR STRESS PERIOD   42   TIME STEP   15
 
 SOLVING FOR HEAD 
                                                   Max.-Head-Change                         Max.-Flux-Residual
  Residual-Control   Outer-Iter.   Inner-Iter.     Column Row Layer    Maximum-Head-Change  Column Row Layer    Maximum-Flux-Residual          L2-NORM 
          0                 1           2             1    1     1       0.2455974215E-02       1    1    1         0.1274721536E+00      0.4810975271E+00
          0                 2           2             1    1     1      -0.2388994608E-03       1    1    1        -0.1274722475E-01      0.4798250144E-01
          0                 3           1             1    1     1       0.1626816618E-04       1    1    1         0.8923060255E-03      0.3347246688E-02

    ------------------------------------------------
       NWT REQUIRED            3 OUTER ITERATIONS 
       AND A TOTAL OF          5 INNER ITERATIONS.
    ------------------------------------------------

 NO OUTPUT CONTROL FOR STRESS PERIOD   42   TIME STEP   16
 
 SOLVING FOR HEAD 
                                                   Max.-Head-Change                         Max.-Flux-Residual
  Residual-Control   Outer-Iter.   Inner-Iter.     Column Row Layer    Maximum-Head-Change  Column Row Layer    Maximum-Flux-Residual          L2-NORM 
          0                 1           2             1    1     1       0.2453862574E-02       1    1    1         0.1273623882E+00      0.4758801472E+00
          0                 2           2             4    7     1      -0.2328067345E-01       5    6    1        -0.1250785853E+01      0.3078677305E+01
          0                 3           2             4    7     1       0.2411339717E-01       5    6    1         0.1331285785E+01      0.3271923784E+01
          0                 4           2             4    7     1      -0.9595042710E-03       5    8    1        -0.5445022016E-01      0.1347045349E+00
          0                 5           1             4    7     1       0.1183108806E-04       4    6    1         0.6900501689E-03      0.1886638380E-02

    ------------------------------------------------
       NWT REQUIRED            5 OUTER ITERATIONS 
       AND A TOTAL OF          9 INNER ITERATIONS.
    ------------------------------------------------

 NO OUTPUT CONTROL FOR STRESS PERIOD   42   TIME STEP   17
 
 SOLVING FOR HEAD 
                                                   Max.-Head-Change                         Max.-Flux-Residual
  Residual-Control   Outer-Iter.   Inner-Iter.     Column Row Layer    Maximum-Head-Change  Column Row Layer    Maximum-Flux-Residual          L2-NORM 
          0                 1           2             1    1     1       0.2451757050E-02       1    1    1         0.1272529401E+00      0.4864253396E+00
          0                 2           2             1    1     1      -0.2384892445E-03       1    1    1        -0.1272530333E-01      0.4847607587E-01
          0                 3           1             1    1     1       0.1624023211E-04       1    1    1         0.8907715314E-03      0.3378246892E-02

    ------------------------------------------------
       NWT REQUIRED            3 OUTER ITERATIONS 
       AND A TOTAL OF          5 INNER ITERATIONS.
    ------------------------------------------------

 NO OUTPUT CONTROL FOR STRESS PERIOD   42   TIME STEP   18
 
 SOLVING FOR HEAD 
                                                   Max.-Head-Change                         Max.-Flux-Residual
  Residual-Control   Outer-Iter.   Inner-Iter.     Column Row Layer    Maximum-Head-Change  Column Row Layer    Maximum-Flux-Residual          L2-NORM 
          0                 1           2             1    1     1       0.2449679576E-02       1    1    1         0.1271449506E+00      0.4801822193E+00
          0                 2           2             4    7     1      -0.2328153570E-01       4    6    1        -0.1250800063E+01      0.3078782055E+01
          0                 3           2             4    7     1       0.2411361285E-01       4    6    1         0.1331295134E+01      0.3271820640E+01
          0                 4           2             4    7     1      -0.9595128536E-03       4    6    1        -0.5445059249E-01      0.1346921525E+00
          0                 5           1             4    7     1       0.1183119380E-04       4    6    1         0.6900559592E-03      0.1886837318E-02

    ------------------------------------------------
       NWT REQUIRED            5 OUTER ITERATIONS 
       AND A TOTAL OF          9 INNER ITERATIONS.
    ------------------------------------------------

 NO OUTPUT CONTROL FOR STRESS PERIOD   42   TIME STEP   19
 
 SOLVING FOR HEAD 
                                                   Max.-Head-Change                         Max.-Flux-Residual
  Residual-Control   Outer-Iter.   Inner-Iter.     Column Row Layer    Maximum-Head-Change  Column Row Layer    Maximum-Flux-Residual          L2-NORM 
          0                 1           2             1    1     1       0.2447584715E-02       4   13    1         0.1314239136E+00      0.4914947849E+00
          0                 2           2             1    1     1      -0.2380833893E-03       4   13    1        -0.1301508748E-01      0.4894539810E-01
          0                 3           1             1    1     1       0.1621259506E-04       4   13    1         0.8985365730E-03      0.3406876220E-02

    ------------------------------------------------
       NWT REQUIRED            3 OUTER ITERATIONS 
       AND A TOTAL OF          5 INNER ITERATIONS.
    ------------------------------------------------

 NO OUTPUT CONTROL FOR STRESS PERIOD   42   TIME STEP   20
 
 SOLVING FOR HEAD 
                                                   Max.-Head-Change                         Max.-Flux-Residual
  Residual-Control   Outer-Iter.   Inner-Iter.     Column Row Layer    Maximum-Head-Change  Column Row Layer    Maximum-Flux-Residual          L2-NORM 
          0                 1           2             1    1     1       0.2445494449E-02       1    1    1         0.1269274045E+00      0.4843077686E+00
          0                 2           2             4    7     1      -0.2328234155E-01       4    6    1        -0.1250834388E+01      0.3079014277E+01
          0                 3           2             4    7     1       0.2411382466E-01       4    6    1         0.1331306239E+01      0.3271916534E+01
          0                 4           2             4    7     1      -0.9595212816E-03       4    6    1        -0.5445104669E-01      0.1345855040E+00
          0                 5           1             4    7     1       0.1183129753E-04       4    6    1         0.6900617361E-03      0.1825907433E-02

    ------------------------------------------------
       NWT REQUIRED            5 OUTER ITERATIONS 
       AND A TOTAL OF          9 INNER ITERATIONS.
    ------------------------------------------------

 NO OUTPUT CONTROL FOR STRESS PERIOD   42   TIME STEP   21
 
 SOLVING FOR HEAD 
                                                   Max.-Head-Change                         Max.-Flux-Residual
  Residual-Control   Outer-Iter.   Inner-Iter.     Column Row Layer    Maximum-Head-Change  Column Row Layer    Maximum-Flux-Residual          L2-NORM 
          0                 1           2             1    1     1       0.2443410216E-02       4   13    1         0.1396688987E+00      0.4961468823E+00
          0                 2           2             1    1     1      -0.2376773235E-03       4   13    1        -0.1383170662E-01      0.4937653119E-01
          0                 3           1             1    1     1       0.1618494287E-04       4   13    1         0.9555540664E-03      0.3434926671E-02

    ------------------------------------------------
       NWT REQUIRED            3 OUTER ITERATIONS 
       AND A TOTAL OF          5 INNER ITERATIONS.
    ------------------------------------------------

 NO OUTPUT CONTROL FOR STRESS PERIOD   42   TIME STEP   22
 
 SOLVING FOR HEAD 
                                                   Max.-Head-Change                         Max.-Flux-Residual
  Residual-Control   Outer-Iter.   Inner-Iter.     Column Row Layer    Maximum-Head-Change  Column Row Layer    Maximum-Flux-Residual          L2-NORM 
          0                 1           2             1    1     1       0.2441353967E-02       1    1    1         0.1267121794E+00      0.4881198425E+00
          0                 2           2             4    7     1      -0.2328309208E-01       4    6    1        -0.1250864327E+01      0.3079216300E+01
          0                 3           2             4    7     1       0.2411403052E-01       4    6    1         0.1331316917E+01      0.3271944799E+01
          0                 4           2             4    7     1      -0.9595294729E-03       4    6    1        -0.5445148345E-01      0.1345868724E+00
          0                 5           1             4    7     1       0.1183139879E-04       4    6    1         0.6900672627E-03      0.1825802679E-02

    ------------------------------------------------
       NWT REQUIRED            5 OUTER ITERATIONS 
       AND A TOTAL OF          9 INNER ITERATIONS.
    ------------------------------------------------

 NO OUTPUT CONTROL FOR STRESS PERIOD   42   TIME STEP   23
 
 SOLVING FOR HEAD 
                                                   Max.-Head-Change                         Max.-Flux-Residual
  Residual-Control   Outer-Iter.   Inner-Iter.     Column Row Layer    Maximum-Head-Change  Column Row Layer    Maximum-Flux-Residual          L2-NORM 
          0                 1           2             4   13     1       0.2543799029E-02       4   13    1         0.1464207164E+00      0.5003278665E+00
          0                 2           2             4   13     1      -0.2449941969E-03       4   13    1        -0.1449932367E-01      0.4976277446E-01
          0                 3           1             4   13     1       0.1644180768E-04       4   13    1         0.1000465976E-02      0.3458633273E-02

    ------------------------------------------------
       NWT REQUIRED            3 OUTER ITERATIONS 
       AND A TOTAL OF          5 INNER ITERATIONS.
    ------------------------------------------------

 NO OUTPUT CONTROL FOR STRESS PERIOD   42   TIME STEP   24
 
 SOLVING FOR HEAD 
                                                   Max.-Head-Change                         Max.-Flux-Residual
  Residual-Control   Outer-Iter.   Inner-Iter.     Column Row Layer    Maximum-Head-Change  Column Row Layer    Maximum-Flux-Residual          L2-NORM 
          0                 1           2             1    1     1       0.2437211038E-02       4   13    1         0.1322156378E+00      0.4915384837E+00
          0                 2           2             4    7     1      -0.2328379126E-01       4    6    1        -0.1250891745E+01      0.3079393663E+01
          0                 3           2             4    7     1       0.2411423069E-01       4    6    1         0.1331327300E+01      0.3271971939E+01
          0                 4           2             4    7     1      -0.9595374386E-03       4    6    1        -0.5445190813E-01      0.1345878932E+00
          0                 5           1             4    7     1       0.1183149714E-04       4    6    1         0.6900726596E-03      0.1825710376E-02

    ------------------------------------------------
       NWT REQUIRED            5 OUTER ITERATIONS 
       AND A TOTAL OF          9 INNER ITERATIONS.
    ------------------------------------------------

 NO OUTPUT CONTROL FOR STRESS PERIOD   42   TIME STEP   25
 
 SOLVING FOR HEAD 
                                                   Max.-Head-Change                         Max.-Flux-Residual
  Residual-Control   Outer-Iter.   Inner-Iter.     Column Row Layer    Maximum-Head-Change  Column Row Layer    Maximum-Flux-Residual          L2-NORM 
          0                 1           2             4   13     1       0.2640248822E-02       4   13    1         0.1519570359E+00      0.5040223298E+00
          0                 2           2             4   13     1      -0.2542859365E-03       4   13    1        -0.1504769837E-01      0.5010423242E-01
          0                 3           1             4   13     1       0.1707507400E-04       4   13    1         0.1038889427E-02      0.3480482592E-02

    ------------------------------------------------
       NWT REQUIRED            3 OUTER ITERATIONS 
       AND A TOTAL OF          5 INNER ITERATIONS.
    ------------------------------------------------

 NO OUTPUT CONTROL FOR STRESS PERIOD   42   TIME STEP   26
 
 SOLVING FOR HEAD 
                                                   Max.-Head-Change                         Max.-Flux-Residual
  Residual-Control   Outer-Iter.   Inner-Iter.     Column Row Layer    Maximum-Head-Change  Column Row Layer    Maximum-Flux-Residual          L2-NORM 
          0                 1           2             1    1     1       0.2433089021E-02       4   13    1         0.1372258750E+00      0.4945758479E+00
          0                 2           2             4    7     1      -0.2328447119E-01       4    6    1        -0.1250918354E+01      0.3079551668E+01
          0                 3           2             4    7     1       0.2411442954E-01       4    6    1         0.1331337627E+01      0.3271998809E+01
          0                 4           2             4    7     1      -0.9595453506E-03       4    6    1        -0.5445233051E-01      0.1345891669E+00
          0                 5           1             4    7     1       0.1183159437E-04       4    6    1         0.6900779977E-03      0.1824999720E-02

    ------------------------------------------------
       NWT REQUIRED            5 OUTER ITERATIONS 
       AND A TOTAL OF          9 INNER ITERATIONS.
    ------------------------------------------------

 NO OUTPUT CONTROL FOR STRESS PERIOD   42   TIME STEP   27
 
 SOLVING FOR HEAD 
                                                   Max.-Head-Change                         Max.-Flux-Residual
  Residual-Control   Outer-Iter.   Inner-Iter.     Column Row Layer    Maximum-Head-Change  Column Row Layer    Maximum-Flux-Residual          L2-NORM 
          0                 1           2             4   13     1       0.2719570049E-02       4   13    1         0.1565041929E+00      0.5072258607E+00
          0                 2           2             4   13     1      -0.2618972947E-03       4   13    1        -0.1549628485E-01      0.5039950098E-01
          0                 3           1             4   13     1       0.1756047254E-04       4   13    1         0.1068281169E-02      0.3498132300E-02

    ------------------------------------------------
       NWT REQUIRED            3 OUTER ITERATIONS 
       AND A TOTAL OF          5 INNER ITERATIONS.
    ------------------------------------------------

 NO OUTPUT CONTROL FOR STRESS PERIOD   42   TIME STEP   28
 
 SOLVING FOR HEAD 
                                                   Max.-Head-Change                         Max.-Flux-Residual
  Residual-Control   Outer-Iter.   Inner-Iter.     Column Row Layer    Maximum-Head-Change  Column Row Layer    Maximum-Flux-Residual          L2-NORM 
          0                 1           2             4   13     1       0.2458012959E-02       4   13    1         0.1413547029E+00      0.4972032785E+00
          0                 2           2             4    7     1      -0.2328507796E-01       4    6    1        -0.1250941297E+01      0.3079688844E+01
          0                 3           2             4    7     1       0.2411462121E-01       4    6    1         0.1331347578E+01      0.3272024432E+01
          0                 4           2             4    7     1      -0.9595529781E-03       4    6    1        -0.5445273750E-01      0.1345903909E+00
          0                 5           1             4    7     1       0.1183168824E-04       4    6    1         0.6900831502E-03      0.1826135214E-02

    ------------------------------------------------
       NWT REQUIRED            5 OUTER ITERATIONS 
       AND A TOTAL OF          9 INNER ITERATIONS.
    ------------------------------------------------

 NO OUTPUT CONTROL FOR STRESS PERIOD   42   TIME STEP   29
 
 SOLVING FOR HEAD 
                                                   Max.-Head-Change                         Max.-Flux-Residual
  Residual-Control   Outer-Iter.   Inner-Iter.     Column Row Layer    Maximum-Head-Change  Column Row Layer    Maximum-Flux-Residual          L2-NORM 
          0                 1           2             4   13     1       0.2785145481E-02       4   13    1         0.1602583046E+00      0.5099906089E+00
          0                 2           2             4   13     1      -0.2682275042E-03       4   13    1        -0.1586890093E-01      0.5065377208E-01
          0                 3           1             4   13     1       0.1801171676E-04       4   13    1         0.1095626327E-02      0.3513934792E-02

    ------------------------------------------------
       NWT REQUIRED            3 OUTER ITERATIONS 
       AND A TOTAL OF          5 INNER ITERATIONS.
    ------------------------------------------------

 NO OUTPUT CONTROL FOR STRESS PERIOD   42   TIME STEP   30



 STREAM LISTING     PERIOD     42   STEP       30

 LAYER ROW COL. STREAM  RCH.  FLOW INTO     FLOW TO   FLOW OUT OF   OVRLND.     DIRECT     STREAM       STREAM     STREAM     STREAM   STREAMBED  STREAMBED
                SEG.NO.  NO.  STRM. RCH.    AQUIFER    STRM. RCH.    RUNOFF     PRECIP       ET          HEAD       DEPTH      WIDTH   CONDCTNC.   GRADIENT

   1    1    1     1     1    4.7249E+01  3.2762E-01   4.6921E+01  0.000E+00  0.000E+00  0.000E+00  1.09443E+03  1.381E+00  1.662E+01  7.477E-02  1.460E+00
   1    2    2     1     2    4.6921E+01  5.0759E-01   4.6413E+01  0.000E+00  0.000E+00  0.000E+00  1.08944E+03  1.379E+00  1.656E+01  1.159E-01  1.460E+00
   1    3    3     1     3    4.6413E+01  4.3309E-01   4.5980E+01  0.000E+00  0.000E+00  0.000E+00  1.08379E+03  1.376E+00  1.650E+01  9.898E-02  1.459E+00
   1    3    4     1     4    4.5980E+01  3.9899E-01   4.5581E+01  0.000E+00  0.000E+00  0.000E+00  1.07878E+03  1.373E+00  1.644E+01  9.124E-02  1.458E+00
   1    4    5     2     1    4.3581E+01  3.6514E-01   4.3216E+01  0.000E+00  0.000E+00  0.000E+00  1.07362E+03  1.681E+00  1.200E+01  7.800E-02  1.560E+00
   1    5    6     2     2    4.3216E+01  2.8042E-01   4.2936E+01  0.000E+00  0.000E+00  0.000E+00  1.06818E+03  1.674E+00  1.200E+01  6.000E-02  1.558E+00
   1    6    6     2     3    4.2936E+01  2.8003E-01   4.2656E+01  0.000E+00  0.000E+00  0.000E+00  1.06346E+03  1.667E+00  1.200E+01  6.000E-02  1.556E+00
   1    7    6     2     4    4.2656E+01  2.7964E-01   4.2376E+01  0.000E+00  0.000E+00  0.000E+00  1.05874E+03  1.661E+00  1.200E+01  6.000E-02  1.554E+00
   1    8    6     2     5    4.2376E+01  2.7924E-01   4.2097E+01  0.000E+00  0.000E+00  0.000E+00  1.05401E+03  1.654E+00  1.200E+01  6.000E-02  1.551E+00
   1    3    5     3     1    2.0000E+00  2.8252E-01   1.7175E+00  0.000E+00  0.000E+00  0.000E+00  1.07555E+03  1.909E+00  9.636E+00  7.227E-02  1.955E+00
   1    3    6     3     2    1.7175E+00  2.4905E-01   1.4684E+00  0.000E+00  0.000E+00  0.000E+00  1.07264E+03  1.727E+00  8.909E+00  6.682E-02  1.864E+00
   1    3    7     3     3    1.4684E+00  1.9718E-01   1.2712E+00  0.000E+00  0.000E+00  0.000E+00  1.06987E+03  1.555E+00  8.218E+00  5.547E-02  1.777E+00
   1    4    8     3     4    1.2712E+00  2.2567E-01   1.0456E+00  0.000E+00  0.000E+00  0.000E+00  1.06682E+03  1.364E+00  7.455E+00  6.709E-02  1.682E+00
   1    5    8     3     5    1.0456E+00  1.5790E-01   8.8768E-01  0.000E+00  0.000E+00  0.000E+00  1.06362E+03  1.164E+00  6.655E+00  4.991E-02  1.582E+00
   1    6    8     3     6    8.8768E-01  5.5980E-02   8.3170E-01  0.000E+00  0.000E+00  0.000E+00  1.06158E+03  1.036E+00  6.145E+00  1.844E-02  1.518E+00
   1    5   10     4     1    1.0000E+01  9.0919E-02   9.9091E+00  0.000E+00  0.000E+00  0.000E+00  1.07836E+03  6.368E-01  1.000E+01  2.500E-02  1.212E+00
   1    5    9     4     2    9.9091E+00  1.8158E-01   9.7275E+00  0.000E+00  0.000E+00  0.000E+00  1.07154E+03  6.315E-01  1.000E+01  5.000E-02  1.211E+00
   1    6    8     4     3    9.7275E+00  1.2689E-01   9.6006E+00  0.000E+00  0.000E+00  0.000E+00  1.06381E+03  6.256E-01  1.000E+01  3.500E-02  1.209E+00
   1    6    8     5     1    1.0432E+01  2.2686E-01   1.0205E+01  0.000E+00  0.000E+00  0.000E+00  1.05868E+03  6.790E-01  1.542E+01  6.166E-02  1.226E+00
   1    7    7     5     2    1.0205E+01  2.7894E-01   9.9265E+00  0.000E+00  0.000E+00  0.000E+00  1.05417E+03  6.732E-01  1.519E+01  7.594E-02  1.224E+00
   1    8    7     5     3    9.9265E+00  1.9221E-01   9.7343E+00  0.000E+00  0.000E+00  0.000E+00  1.04992E+03  6.676E-01  1.497E+01  5.241E-02  1.223E+00
   1    8    6     5     4    9.7343E+00  1.3577E-01   9.5985E+00  0.000E+00  0.000E+00  0.000E+00  1.04691E+03  6.637E-01  1.482E+01  3.706E-02  1.221E+00
   1    9    6     6     1    5.1695E+01  2.9310E-01   5.1402E+01  0.000E+00  0.000E+00  0.000E+00  1.04461E+03  1.885E+00  1.200E+01  6.000E-02  1.628E+00
   1   10    7     6     2    5.1402E+01  2.9271E-01   5.1110E+01  0.000E+00  0.000E+00  0.000E+00  1.04006E+03  1.879E+00  1.200E+01  6.000E-02  1.626E+00
   1   11    7     6     3    5.1110E+01  2.9233E-01   5.0817E+01  0.000E+00  0.000E+00  0.000E+00  1.03551E+03  1.872E+00  1.200E+01  6.000E-02  1.624E+00
   1   12    7     6     4    5.0817E+01  2.9194E-01   5.0525E+01  0.000E+00  0.000E+00  0.000E+00  1.03096E+03  1.866E+00  1.200E+01  6.000E-02  1.622E+00
   1   13    7     6     5    5.0525E+01  1.9508E-02   5.0506E+01  0.000E+00  0.000E+00  0.000E+00  1.02777E+03  1.862E+00  1.200E+01  2.400E-02  2.709E-01
   1   14    9     7     1    1.5000E+02  1.3532E+00   1.4865E+02  0.000E+00  0.000E+00  0.000E+00  1.03987E+03  2.288E+00  5.529E+01  5.593E-01  8.065E-01
   1   13    8     7     2    1.4865E+02  1.8817E+00   1.4677E+02  0.000E+00  0.000E+00  0.000E+00  1.03478E+03  2.279E+00  5.526E+01  6.148E-01  1.020E+00
   1   13    7     7     3    1.4677E+02  1.5250E+00   1.4524E+02  0.000E+00  0.000E+00  0.000E+00  1.02969E+03  2.270E+00  5.521E+01  5.584E-01  9.103E-01
   1   13    6     8     1    1.9575E+02  1.0760E+00   1.9467E+02  0.000E+00  0.000E+00  0.000E+00  1.02498E+03  3.109E+00  4.509E+01  4.594E-01  7.807E-01
   1   13    5     8     2    1.9467E+02  2.7456E-01   1.9440E+02  0.000E+00  0.000E+00  0.000E+00  1.01873E+03  3.105E+00  4.503E+01  4.588E-01  1.995E-01
   1   13    4     8     3    1.9440E+02 -2.0941E+00   1.9649E+02  0.000E+00  0.000E+00  0.000E+00  1.01249E+03  3.111E+00  4.511E+01  4.596E+00 -1.519E-01
   1   13    3     8     4    1.9649E+02 -3.4219E+00   1.9991E+02  0.000E+00  0.000E+00  0.000E+00  1.00625E+03  3.127E+00  4.534E+01  4.621E+00 -2.469E-01
   1   13    2     8     5    1.9991E+02 -2.4111E+00   2.0232E+02  0.000E+00  0.000E+00  0.000E+00  1.00002E+03  3.144E+00  4.559E+01  4.646E+00 -1.730E-01
   1   13    1     8     6    2.0232E+02 -1.9250E+00   2.0425E+02  0.000E+00  0.000E+00  0.000E+00  9.95032E+02  3.157E+00  4.578E+01  2.799E+00 -2.293E-01
   1    8    6     9     1    6.6396E-07  0.0000E+00   6.6396E-07  0.000E+00  0.000E+00  0.000E+00  1.07875E+03  8.769E-05  4.000E+00  0.000E+00  1.000E+00
   1    8    5     9     2    6.6396E-07  0.0000E+00   6.6396E-07  0.000E+00  0.000E+00  0.000E+00  1.07825E+03  8.769E-05  4.000E+00  0.000E+00  1.000E+00





UNSATURATED ZONE PACKAGE VOLUMETRIC BUDGET FOR  TIME STEP    30 STRESS PERIOD   42
  ------------------------------------------------------------------------------



     CUMULATIVE VOLUMES      L**3       RATES FOR THIS TIME STEP      L**3/T
     ------------------                 ------------------------

           IN:                                      IN:
           ---                                      ---
        INFILTRATION =  1577454278.7920          INFILTRATION =           0.8475

          OUT:                                     OUT:
          ----                                     ----
              UZF ET =  1315409779.9284                UZF ET =           8.3175
        UZF RECHARGE =    81203290.6307          UZF RECHARGE =       0.0000E+00

            IN - OUT =   180841208.2329              IN - OUT =          -7.4700

          STORAGE:                                 STORAGE:
          --------                                 --------
      STORAGE CHANGE =   180842543.5407        STORAGE CHANGE =          -7.4699

 PERCENT DISCREPANCY IS DIFFERENCE BETWEEN IN-OUT MINUS CHANGE IN STORAGE
 DIVIDED BY THE AVERAGE OF IN AND OUT TIMES 100

 PERCENT DISCREPANCY =          -0.00     PERCENT DISCREPANCY =          -0.00






1
  VOLUMETRIC BUDGET FOR AGRICULTURAL FIELDS AT  END OF TIME STEP   30, STRESS PERIOD  42
  ------------------------------------------------------------------------------

     CUMULATIVE VOLUMES      L**3       RATES FOR THIS TIME STEP      L**3/T
     ------------------                 ------------------------

           IN:                                      IN:
           ---                                      ---
               AG WELLS  =   541941056.0000                 AG WELLS  =       2.2132E-07
      DIVERSION SEGMENTS =   944044736.0000        DIVERSION SEGMENTS =       6.6396E-07
           GW IRRIGATION =           0.0000             GW IRRIGATION =           0.0000
           SW IRRIGATION =           0.0000             SW IRRIGATION =           0.0000
        SYSTEM LOSSES GW =           0.0000          SYSTEM LOSSES GW =           0.0000
        SYSTEM LOSSES SW =           0.0000          SYSTEM LOSSES SW =           0.0000

                TOTAL IN =  1485985792.0000                  TOTAL IN =       8.8528E-07

          OUT:                                     OUT:
          ----                                     ----
               AG WELLS  =           0.0000                 AG WELLS  =           0.0000
      DIVERSION SEGMENTS =           0.0000        DIVERSION SEGMENTS =           0.0000
           GW IRRIGATION =   541941056.0000             GW IRRIGATION =       2.2132E-07
           SW IRRIGATION =   944063616.0000             SW IRRIGATION =       6.6397E-07
        SYSTEM LOSSES GW =           0.0000          SYSTEM LOSSES GW =           0.0000
        SYSTEM LOSSES SW =           0.0000          SYSTEM LOSSES SW =           0.0000

               TOTAL OUT =  1486004736.0000                 TOTAL OUT =       8.8529E-07

                IN - OUT =      -18944.0000                  IN - OUT =      -1.3188E-11

     PERCENT DISCREPANCY =          -0.00         PERCENT DISCREPANCY =          -0.00



1
  VOLUMETRIC BUDGET FOR ENTIRE MODEL AT END OF TIME STEP   30, STRESS PERIOD  42
  ------------------------------------------------------------------------------

     CUMULATIVE VOLUMES      L**3       RATES FOR THIS TIME STEP      L**3/T
     ------------------                 ------------------------

           IN:                                      IN:
           ---                                      ---
             STORAGE     =   918958208.0000               STORAGE     =           0.5536
       CONSTANT HEAD     =           0.0000         CONSTANT HEAD     =           0.0000
     HEAD DEP BOUNDS     =    30872258.0000       HEAD DEP BOUNDS     =           0.2869
      STREAM LEAKAGE     =  1304281728.0000        STREAM LEAKAGE     =          12.8533
        UZF RECHARGE     =    81203288.0000          UZF RECHARGE     =           0.0000
               GW ET     =           0.0000                 GW ET     =           0.0000
     SURFACE LEAKAGE     =           0.0000       SURFACE LEAKAGE     =           0.0000
           AG WELLS      =           0.0000             AG WELLS      =           0.0000

                TOTAL IN =  2335315456.0000                  TOTAL IN =          13.6938

          OUT:                                     OUT:
          ----                                     ----
             STORAGE     =   615737152.0000               STORAGE     =           3.5492
       CONSTANT HEAD     =           0.0000         CONSTANT HEAD     =           0.0000
     HEAD DEP BOUNDS     =    31390596.0000       HEAD DEP BOUNDS     =           0.2934
      STREAM LEAKAGE     =  1143311232.0000        STREAM LEAKAGE     =           9.8521
        UZF RECHARGE     =           0.0000          UZF RECHARGE     =           0.0000
               GW ET     =     2951485.0000                 GW ET     =           0.0000
     SURFACE LEAKAGE     =           0.0000       SURFACE LEAKAGE     =           0.0000
           AG WELLS      =   541941056.0000             AG WELLS      =       2.2132E-07

               TOTAL OUT =  2335331328.0000                 TOTAL OUT =          13.6947

                IN - OUT =      -15872.0000                  IN - OUT =      -8.5068E-04

     PERCENT DISCREPANCY =          -0.00         PERCENT DISCREPANCY =          -0.01






         TIME SUMMARY AT END OF TIME STEP   30 IN STRESS PERIOD   42
                    SECONDS     MINUTES      HOURS       DAYS        YEARS
                    -----------------------------------------------------------
   TIME STEP LENGTH  87667.      1461.1      24.352      1.0147     2.77799E-03
 STRESS PERIOD TIME 2.63000E+06  43833.      730.56      30.440     8.33397E-02
         TOTAL TIME 1.07916E+08 1.79859E+06  29977.      1249.0      3.4196    
1
1
                            STRESS PERIOD NO.   43, LENGTH =   2630000.    
                            -----------------------------------------------

                              NUMBER OF TIME STEPS =    30

                               MULTIPLIER FOR DELT =     1.000

                            INITIAL TIME STEP SIZE =   87666.66    

 REUSING NON-PARAMETER GHB CELLS FROM LAST STRESS PERIOD

      2 GHB CELLS

 REUSING STREAM SEGMENT DATA FROM LAST STRESS PERIOD



            AREAL INFILTRATION RATE
 READING ON UNIT   19 WITH FORMAT: (FREE)              

            1           2           3           4           5           6           7           8           9          10
 ........................................................................................................................
   1   1.0000E-10  2.0000E-10   0.000       0.000       0.000       0.000       0.000       0.000       0.000       0.000    
   2   2.0000E-10  1.0000E-10  2.0000E-10   0.000       0.000      8.0000E-10  8.0000E-10  5.0000E-10   0.000       0.000    
   3    0.000      5.0000E-10  1.0000E-10  1.0000E-10  8.0000E-10  8.0000E-10  5.0000E-10  5.0000E-10   0.000       0.000    
   4   8.0000E-10  5.0000E-10  1.0000E-10  1.0000E-10  1.0000E-10  1.0000E-10  1.0000E-10  1.0000E-10  2.0000E-10   0.000    
   5   8.0000E-10  5.0000E-10  1.0000E-10  1.0000E-10  1.0000E-10  1.0000E-10  1.0000E-10  1.0000E-10  1.0000E-10  1.0000E-10
   6   8.0000E-10  5.0000E-10  5.0000E-10  2.0000E-10  2.0000E-10  1.0000E-10  1.0000E-10  1.0000E-10  1.0000E-10  5.0000E-10
   7   8.0000E-10  5.0000E-10  5.0000E-10  2.0000E-10  2.0000E-10  1.0000E-10  1.0000E-10  2.0000E-10  2.0000E-10   0.000    
   8    0.000      5.0000E-10  5.0000E-10  2.0000E-10  2.0000E-10  1.0000E-10  1.0000E-10  2.0000E-10  5.0000E-10   0.000    
   9    0.000      5.0000E-10  5.0000E-10  2.0000E-10  2.0000E-10  1.0000E-10  1.0000E-10  2.0000E-10  5.0000E-10   0.000    
  10    0.000      5.0000E-10  5.0000E-10  2.0000E-10  2.0000E-10  1.0000E-10  1.0000E-10  2.0000E-10  5.0000E-10  8.0000E-10
  11    0.000      1.0000E-10  1.0000E-10  1.0000E-10  1.0000E-10  1.0000E-10  1.0000E-10  2.0000E-10  5.0000E-10   0.000    
  12   1.0000E-10  1.0000E-10  1.0000E-10  1.0000E-10  1.0000E-10  1.0000E-10  1.0000E-10  1.0000E-10  2.0000E-10   0.000    
  13   1.0000E-10  1.0000E-10  2.0000E-10  2.0000E-10  2.0000E-10  2.0000E-10  2.0000E-10  1.0000E-10  1.0000E-10   0.000    
  14    0.000      2.0000E-10  5.0000E-10  5.0000E-10  5.0000E-10  5.0000E-10  5.0000E-10  2.0000E-10  1.0000E-10   0.000    
  15    0.000       0.000      8.0000E-10  8.0000E-10  8.0000E-10  8.0000E-10   0.000       0.000       0.000       0.000    

                  ET RATE =  1.500000E-07

 USING ET EXTINCTION DEPTH FROM PREVIOUS STRESS PERIOD. CURRENT PERIOD IS:      43

 USING EXTINCTION WATER CONTENT FROM PREVIOUS STRESS PERIOD. CURRENT PERIOD IS:      43

 USING AIR ENTRY PRESSURE FROM PREVIOUS STRESS PERIOD. CURRENT PERIOD IS:      43

 USING ROOT PRESSURE HEAD FROM PREVIOUS STRESS PERIOD. CURRENT PERIOD IS:      43

 USING ROOT ACTIVITY FROM PREVIOUS STRESS PERIOD. CURRENT PERIOD IS:      43

 PROCESSING AG STRESS PERIOD DATA

 READING AG STRESS PERIOD DATA

 READING IRRIGATION SEGMENT

 READING IRRIGATION WELL

 READING SUPPLEMENTAL WELL

 END PROCESSING AG STRESS PERIOD DATA OPTIONS
 
 SOLVING FOR HEAD 
                                                   Max.-Head-Change                         Max.-Flux-Residual
  Residual-Control   Outer-Iter.   Inner-Iter.     Column Row Layer    Maximum-Head-Change  Column Row Layer    Maximum-Flux-Residual          L2-NORM 
          0                 1           2             4   13     1       0.2463960308E-02       4   13    1         0.1416757864E+00      0.4965477889E+00
          0                 2           2             4    7     1      -0.6983482131E-01       4    6    1        -0.3750963639E+01      0.9230259532E+01
          0                 3           2             4    7     1       0.6362082979E-01       4    6    1         0.3512402195E+01      0.8629451821E+01
          0                 4           2             4    7     1      -0.2531599476E-02       4    8    1        -0.1436672495E+00      0.3651929350E+00
          0                 5           1             7   13     1       0.1035954491E-03       7   13    1         0.5935597198E-02      0.7667316086E-02
          0                 6           1             7   13     1      -0.4119427974E-05       7   13    1        -0.2425231285E-03      0.2523908128E-03

    ------------------------------------------------
       NWT REQUIRED            6 OUTER ITERATIONS 
       AND A TOTAL OF         10 INNER ITERATIONS.
    ------------------------------------------------

 NO OUTPUT CONTROL FOR STRESS PERIOD   43   TIME STEP    1
 
 SOLVING FOR HEAD 
                                                   Max.-Head-Change                         Max.-Flux-Residual
  Residual-Control   Outer-Iter.   Inner-Iter.     Column Row Layer    Maximum-Head-Change  Column Row Layer    Maximum-Flux-Residual          L2-NORM 
          0                 1           2             7   13     1       0.3067030381E-02       7   13    1         0.1658199051E+00      0.4992935714E+00
          0                 2           2             7   13     1      -0.3132114541E-02       7   13    1        -0.1738015250E+00      0.1794946986E+00
          0                 3           2             7   13     1       0.2132253700E-03       7   13    1         0.1216276456E-01      0.1255553847E-01
          0                 4           1             7   13     1      -0.8480277399E-05       7   13    1        -0.4972192457E-03      0.5130984975E-03

    ------------------------------------------------
       NWT REQUIRED            4 OUTER ITERATIONS 
       AND A TOTAL OF          7 INNER ITERATIONS.
    ------------------------------------------------

 NO OUTPUT CONTROL FOR STRESS PERIOD   43   TIME STEP    2
 
 SOLVING FOR HEAD 
                                                   Max.-Head-Change                         Max.-Flux-Residual
  Residual-Control   Outer-Iter.   Inner-Iter.     Column Row Layer    Maximum-Head-Change  Column Row Layer    Maximum-Flux-Residual          L2-NORM 
          0                 1           2             1    1     1       0.2190676393E-02       4   13    1         0.1233661419E+00      0.4656573317E+00
          0                 2           2             4    7     1      -0.6986349526E-01       5    6    1        -0.3753353140E+01      0.9234853740E+01
          0                 3           2             4    7     1       0.5295737731E-01       5    6    1         0.2923756804E+01      0.7181706036E+01
          0                 4           2             4    7     1      -0.2107270100E-02       4    8    1        -0.1195869123E+00      0.3074662224E+00
          0                 5           1             7   13     1       0.1033915537E-03       7   13    1         0.5923293424E-02      0.7171096633E-02
          0                 6           1             7   13     1      -0.4112136808E-05       7   13    1        -0.2420847309E-03      0.2494870556E-03

    ------------------------------------------------
       NWT REQUIRED            6 OUTER ITERATIONS 
       AND A TOTAL OF         10 INNER ITERATIONS.
    ------------------------------------------------

 NO OUTPUT CONTROL FOR STRESS PERIOD   43   TIME STEP    3
 
 SOLVING FOR HEAD 
                                                   Max.-Head-Change                         Max.-Flux-Residual
  Residual-Control   Outer-Iter.   Inner-Iter.     Column Row Layer    Maximum-Head-Change  Column Row Layer    Maximum-Flux-Residual          L2-NORM 
          0                 1           2             4   13     1       0.3281089481E-02       4   13    1         0.1892341943E+00      0.5468123065E+00
          0                 2           2             7   13     1      -0.3142826723E-02       7   13    1        -0.1743918999E+00      0.1810707671E+00
          0                 3           2             7   13     1       0.2139559752E-03       7   13    1         0.1220411899E-01      0.1265842398E-01
          0                 4           1             7   13     1      -0.8509282877E-05       7   13    1        -0.4989043325E-03      0.5168070713E-03

    ------------------------------------------------
       NWT REQUIRED            4 OUTER ITERATIONS 
       AND A TOTAL OF          7 INNER ITERATIONS.
    ------------------------------------------------

 NO OUTPUT CONTROL FOR STRESS PERIOD   43   TIME STEP    4
 
 SOLVING FOR HEAD 
                                                   Max.-Head-Change                         Max.-Flux-Residual
  Residual-Control   Outer-Iter.   Inner-Iter.     Column Row Layer    Maximum-Head-Change  Column Row Layer    Maximum-Flux-Residual          L2-NORM 
          0                 1           2             4   13     1       0.3015742888E-02       4   13    1         0.1738293628E+00      0.5090405252E+00
          0                 2           2             4    7     1      -0.6987705224E-01       5    6    1        -0.3756096227E+01      0.9240474538E+01
          0                 3           2             4    7     1       0.5295867248E-01       5    6    1         0.2923948820E+01      0.7182027034E+01
          0                 4           2             4    7     1      -0.2107656479E-02       4    6    1        -0.1210644754E+00      0.3079764278E+00
          0                 5           1             7   13     1       0.1029764073E-03       7   13    1         0.5899557248E-02      0.7156709257E-02
          0                 6           1             7   13     1      -0.4089291613E-05       7   13    1        -0.2407398515E-03      0.2480206219E-03

    ------------------------------------------------
       NWT REQUIRED            6 OUTER ITERATIONS 
       AND A TOTAL OF         10 INNER ITERATIONS.
    ------------------------------------------------

 NO OUTPUT CONTROL FOR STRESS PERIOD   43   TIME STEP    5
 
 SOLVING FOR HEAD 
                                                   Max.-Head-Change                         Max.-Flux-Residual
  Residual-Control   Outer-Iter.   Inner-Iter.     Column Row Layer    Maximum-Head-Change  Column Row Layer    Maximum-Flux-Residual          L2-NORM 
          0                 1           2             4   13     1       0.4072723510E-02       4   13    1         0.2349107147E+00      0.6001696726E+00
          0                 2           2             7   13     1      -0.3153031519E-02       7   13    1        -0.1749544510E+00      0.1829566198E+00
          0                 3           2             7   13     1       0.2146508901E-03       7   13    1         0.1224350122E-01      0.1278302627E-01
          0                 4           1             7   13     1      -0.8537326349E-05       7   13    1        -0.5005369553E-03      0.5214077486E-03

    ------------------------------------------------
       NWT REQUIRED            4 OUTER ITERATIONS 
       AND A TOTAL OF          7 INNER ITERATIONS.
    ------------------------------------------------

 NO OUTPUT CONTROL FOR STRESS PERIOD   43   TIME STEP    6
 
 SOLVING FOR HEAD 
                                                   Max.-Head-Change                         Max.-Flux-Residual
  Residual-Control   Outer-Iter.   Inner-Iter.     Column Row Layer    Maximum-Head-Change  Column Row Layer    Maximum-Flux-Residual          L2-NORM 
          0                 1           2             4   13     1       0.3729438649E-02       4   13    1         0.2149937873E+00      0.5581172726E+00
          0                 2           2             4    7     1      -0.6989180645E-01       5    6    1        -0.3758559769E+01      0.9245641138E+01
          0                 3           2             4    7     1       0.5295957402E-01       5    6    1         0.2924121268E+01      0.7182190300E+01
          0                 4           2             4    7     1      -0.2107564091E-02       4    6    1        -0.1205046360E+00      0.3076844454E+00
          0                 5           1             7   13     1       0.1025817532E-03       7   13    1         0.5876806342E-02      0.7136748090E-02
          0                 6           1             7   13     1      -0.4079102401E-05       7   13    1        -0.2401239742E-03      0.2474776932E-03

    ------------------------------------------------
       NWT REQUIRED            6 OUTER ITERATIONS 
       AND A TOTAL OF         10 INNER ITERATIONS.
    ------------------------------------------------

 NO OUTPUT CONTROL FOR STRESS PERIOD   43   TIME STEP    7
 
 SOLVING FOR HEAD 
                                                   Max.-Head-Change                         Max.-Flux-Residual
  Residual-Control   Outer-Iter.   Inner-Iter.     Column Row Layer    Maximum-Head-Change  Column Row Layer    Maximum-Flux-Residual          L2-NORM 
          0                 1           2             4   13     1       0.4719611214E-02       4   13    1         0.2722065110E+00      0.6534548612E+00
          0                 2           2             7   13     1      -0.3162769369E-02       7   13    1        -0.1754913637E+00      0.1849853768E+00
          0                 3           2             7   13     1       0.2153115571E-03       7   13    1         0.1228065330E-01      0.1291750114E-01
          0                 4           1             7   13     1      -0.8562629553E-05       7   13    1        -0.5019704950E-03      0.5264587635E-03

    ------------------------------------------------
       NWT REQUIRED            4 OUTER ITERATIONS 
       AND A TOTAL OF          7 INNER ITERATIONS.
    ------------------------------------------------

 NO OUTPUT CONTROL FOR STRESS PERIOD   43   TIME STEP    8
 
 SOLVING FOR HEAD 
                                                   Max.-Head-Change                         Max.-Flux-Residual
  Residual-Control   Outer-Iter.   Inner-Iter.     Column Row Layer    Maximum-Head-Change  Column Row Layer    Maximum-Flux-Residual          L2-NORM 
          0                 1           2             4   13     1       0.4313021638E-02       4   13    1         0.2486267009E+00      0.6074171405E+00
          0                 2           2             4    7     1      -0.6990748440E-01       5    6    1        -0.3760780258E+01      0.9250401308E+01
          0                 3           2             4    7     1       0.5296054632E-01       5    6    1         0.2924276702E+01      0.7182347852E+01
          0                 4           2             4    7     1      -0.2107481601E-02       4    6    1        -0.1199756190E+00      0.3073927578E+00
          0                 5           1             7   13     1       0.1022048187E-03       7   13    1         0.5855529637E-02      0.7112100301E-02
          0                 6           1             7   13     1      -0.4064098233E-05       7   13    1        -0.2392758593E-03      0.2463005138E-03

    ------------------------------------------------
       NWT REQUIRED            6 OUTER ITERATIONS 
       AND A TOTAL OF         10 INNER ITERATIONS.
    ------------------------------------------------

 NO OUTPUT CONTROL FOR STRESS PERIOD   43   TIME STEP    9
 
 SOLVING FOR HEAD 
                                                   Max.-Head-Change                         Max.-Flux-Residual
  Residual-Control   Outer-Iter.   Inner-Iter.     Column Row Layer    Maximum-Head-Change  Column Row Layer    Maximum-Flux-Residual          L2-NORM 
          0                 1           2             4   13     1       0.5248942686E-02       4   13    1         0.3026996990E+00      0.7040203670E+00
          0                 2           2             7   13     1      -0.3172044141E-02       7   13    1        -0.1760027986E+00      0.1870507824E+00
          0                 3           2             7   13     1       0.2159431498E-03       7   13    1         0.1231647092E-01      0.1305513006E-01
          0                 4           1             7   13     1      -0.8589308532E-05       7   13    1        -0.5035270287E-03      0.5315319047E-03

    ------------------------------------------------
       NWT REQUIRED            4 OUTER ITERATIONS 
       AND A TOTAL OF          7 INNER ITERATIONS.
    ------------------------------------------------

 NO OUTPUT CONTROL FOR STRESS PERIOD   43   TIME STEP   10
 
 SOLVING FOR HEAD 
                                                   Max.-Head-Change                         Max.-Flux-Residual
  Residual-Control   Outer-Iter.   Inner-Iter.     Column Row Layer    Maximum-Head-Change  Column Row Layer    Maximum-Flux-Residual          L2-NORM 
          0                 1           2             4   13     1       0.4791057667E-02       4   13    1         0.2761536145E+00      0.6544359515E+00
          0                 2           2             4    7     1      -0.6992389807E-01       5    6    1        -0.3762785517E+01      0.9254799090E+01
          0                 3           2             4    7     1       0.5296157590E-01       5    6    1         0.2924417071E+01      0.7182475242E+01
          0                 4           2             4    7     1      -0.2107436772E-02       5    8    1        -0.1196139418E+00      0.3071529519E+00
          0                 5           1             7   13     1       0.1018462946E-03       7   13    1         0.5834987959E-02      0.7094088842E-02
          0                 6           1             7   13     1      -0.4051418534E-05       7   13    1        -0.2385187402E-03      0.2454985244E-03

    ------------------------------------------------
       NWT REQUIRED            6 OUTER ITERATIONS 
       AND A TOTAL OF         10 INNER ITERATIONS.
    ------------------------------------------------

 NO OUTPUT CONTROL FOR STRESS PERIOD   43   TIME STEP   11
 
 SOLVING FOR HEAD 
                                                   Max.-Head-Change                         Max.-Flux-Residual
  Residual-Control   Outer-Iter.   Inner-Iter.     Column Row Layer    Maximum-Head-Change  Column Row Layer    Maximum-Flux-Residual          L2-NORM 
          0                 1           2             4   13     1       0.5682980796E-02       4   13    1         0.3276819132E+00      0.7508143132E+00
          0                 2           2             7   13     1      -0.3180894202E-02       7   13    1        -0.1764908790E+00      0.1890873331E+00
          0                 3           2             7   13     1       0.2165454558E-03       7   13    1         0.1235063258E-01      0.1319184761E-01
          0                 4           1             7   13     1      -0.8612689336E-05       7   13    1        -0.5048949108E-03      0.5370771717E-03

    ------------------------------------------------
       NWT REQUIRED            4 OUTER ITERATIONS 
       AND A TOTAL OF          7 INNER ITERATIONS.
    ------------------------------------------------

 NO OUTPUT CONTROL FOR STRESS PERIOD   43   TIME STEP   12
 
 SOLVING FOR HEAD 
                                                   Max.-Head-Change                         Max.-Flux-Residual
  Residual-Control   Outer-Iter.   Inner-Iter.     Column Row Layer    Maximum-Head-Change  Column Row Layer    Maximum-Flux-Residual          L2-NORM 
          0                 1           2             4   13     1       0.5183320051E-02       4   13    1         0.2987215046E+00      0.6981707899E+00
          0                 2           2             4    7     1      -0.6994083667E-01       5    6    1        -0.3764604033E+01      0.9258886608E+01
          0                 3           2             4    7     1       0.5296264767E-01       5    6    1         0.2924544368E+01      0.7182580117E+01
          0                 4           2             4    7     1      -0.2107479430E-02       5    8    1        -0.1196191402E+00      0.3070797856E+00
          0                 5           1             7   13     1       0.1015025112E-03       7   13    1         0.5815309061E-02      0.7078349254E-02
          0                 6           1             7   13     1      -0.4035875098E-05       7   13    1        -0.2376131970E-03      0.2445282604E-03

    ------------------------------------------------
       NWT REQUIRED            6 OUTER ITERATIONS 
       AND A TOTAL OF         10 INNER ITERATIONS.
    ------------------------------------------------

 NO OUTPUT CONTROL FOR STRESS PERIOD   43   TIME STEP   13
 
 SOLVING FOR HEAD 
                                                   Max.-Head-Change                         Max.-Flux-Residual
  Residual-Control   Outer-Iter.   Inner-Iter.     Column Row Layer    Maximum-Head-Change  Column Row Layer    Maximum-Flux-Residual          L2-NORM 
          0                 1           2             4   13     1       0.6039378825E-02       4   13    1         0.3481768054E+00      0.7935582877E+00
          0                 2           2             7   13     1      -0.3189320583E-02       7   13    1        -0.1769556243E+00      0.1910531669E+00
          0                 3           2             7   13     1       0.2171193677E-03       7   13    1         0.1238318320E-01      0.1332363152E-01
          0                 4           1             7   13     1      -0.8635167770E-05       7   13    1        -0.5062035784E-03      0.5417906114E-03

    ------------------------------------------------
       NWT REQUIRED            4 OUTER ITERATIONS 
       AND A TOTAL OF          7 INNER ITERATIONS.
    ------------------------------------------------

 NO OUTPUT CONTROL FOR STRESS PERIOD   43   TIME STEP   14
 
 SOLVING FOR HEAD 
                                                   Max.-Head-Change                         Max.-Flux-Residual
  Residual-Control   Outer-Iter.   Inner-Iter.     Column Row Layer    Maximum-Head-Change  Column Row Layer    Maximum-Flux-Residual          L2-NORM 
          0                 1           2             4   13     1       0.5505875964E-02       4   13    1         0.3172619371E+00      0.7382764719E+00
          0                 2           2             4    7     1      -0.6995864030E-01       5    6    1        -0.3766256302E+01      0.9262633967E+01
          0                 3           2             4    7     1       0.5296439745E-01       5    6    1         0.2924660032E+01      0.7183764550E+01
          0                 4           2             4    7     1      -0.2107549000E-02       5    8    1        -0.1196238470E+00      0.3070564050E+00
          0                 5           1             7   13     1       0.1011749098E-03       7   13    1         0.5796547931E-02      0.7064017841E-02
          0                 6           1             7   13     1      -0.4025553948E-05       7   13    1        -0.2370047764E-03      0.2439957838E-03

    ------------------------------------------------
       NWT REQUIRED            6 OUTER ITERATIONS 
       AND A TOTAL OF         10 INNER ITERATIONS.
    ------------------------------------------------

 NO OUTPUT CONTROL FOR STRESS PERIOD   43   TIME STEP   15
 
 SOLVING FOR HEAD 
                                                   Max.-Head-Change                         Max.-Flux-Residual
  Residual-Control   Outer-Iter.   Inner-Iter.     Column Row Layer    Maximum-Head-Change  Column Row Layer    Maximum-Flux-Residual          L2-NORM 
          0                 1           2             4   13     1       0.6332837750E-02       4   13    1         0.3650363980E+00      0.8324713395E+00
          0                 2           2             7   13     1      -0.3197348361E-02       7   13    1        -0.1773983909E+00      0.1929329256E+00
          0                 3           2             7   13     1       0.2176568046E-03       7   13    1         0.1241366160E-01      0.1344996365E-01
          0                 4           1             7   13     1      -0.8656859652E-05       7   13    1        -0.5074701867E-03      0.5465936038E-03

    ------------------------------------------------
       NWT REQUIRED            4 OUTER ITERATIONS 
       AND A TOTAL OF          7 INNER ITERATIONS.
    ------------------------------------------------

 NO OUTPUT CONTROL FOR STRESS PERIOD   43   TIME STEP   16
 
 SOLVING FOR HEAD 
                                                   Max.-Head-Change                         Max.-Flux-Residual
  Residual-Control   Outer-Iter.   Inner-Iter.     Column Row Layer    Maximum-Head-Change  Column Row Layer    Maximum-Flux-Residual          L2-NORM 
          0                 1           2             4   13     1       0.5771614786E-02       4   13    1         0.3325216645E+00      0.7749367933E+00
          0                 2           2             4    7     1      -0.6997612435E-01       5    6    1        -0.3767760967E+01      0.9266136884E+01
          0                 3           2             4    7     1       0.5296561757E-01       5    6    1         0.2924742230E+01      0.7183984559E+01
          0                 4           2             4    7     1      -0.2107597550E-02       4    6    1        -0.1196139312E+00      0.3069816472E+00
          0                 5           1             7   13     1       0.1008699747E-03       7   13    1         0.5779085881E-02      0.7051240749E-02
          0                 6           1             7   13     1      -0.4016943394E-05       7   13    1        -0.2364992224E-03      0.2435404913E-03

    ------------------------------------------------
       NWT REQUIRED            6 OUTER ITERATIONS 
       AND A TOTAL OF         10 INNER ITERATIONS.
    ------------------------------------------------

 NO OUTPUT CONTROL FOR STRESS PERIOD   43   TIME STEP   17
 
 SOLVING FOR HEAD 
                                                   Max.-Head-Change                         Max.-Flux-Residual
  Residual-Control   Outer-Iter.   Inner-Iter.     Column Row Layer    Maximum-Head-Change  Column Row Layer    Maximum-Flux-Residual          L2-NORM 
          0                 1           2             4   13     1       0.6574841720E-02       4   13    1         0.3789260585E+00      0.8678250446E+00
          0                 2           2             7   13     1      -0.3205009047E-02       7   13    1        -0.1778209492E+00      0.1947158780E+00
          0                 3           2             7   13     1       0.2181882618E-03       7   13    1         0.1244380916E-01      0.1357123211E-01
          0                 4           1             7   13     1      -0.8676828995E-05       7   13    1        -0.5086340300E-03      0.5515438647E-03

    ------------------------------------------------
       NWT REQUIRED            4 OUTER ITERATIONS 
       AND A TOTAL OF          7 INNER ITERATIONS.
    ------------------------------------------------

 NO OUTPUT CONTROL FOR STRESS PERIOD   43   TIME STEP   18
 
 SOLVING FOR HEAD 
                                                   Max.-Head-Change                         Max.-Flux-Residual
  Residual-Control   Outer-Iter.   Inner-Iter.     Column Row Layer    Maximum-Head-Change  Column Row Layer    Maximum-Flux-Residual          L2-NORM 
          0                 1           2             4   13     1       0.5991087228E-02       4   13    1         0.3451118094E+00      0.8083823925E+00
          0                 2           2             4    7     1      -0.6999372154E-01       5    6    1        -0.3769135782E+01      0.9269404651E+01
          0                 3           2             4    7     1       0.5299257285E-01       5    6    1         0.2924838687E+01      0.7184139131E+01
          0                 4           2             4    7     1      -0.2133700103E-02       4    7    1        -0.1211601616E+00      0.3075376248E+00
          0                 5           1             7   13     1       0.1005689920E-03       7   13    1         0.5761849788E-02      0.7042107365E-02
          0                 6           1             7   13     1      -0.3999256243E-05       7   13    1        -0.2354585065E-03      0.2425636017E-03

    ------------------------------------------------
       NWT REQUIRED            6 OUTER ITERATIONS 
       AND A TOTAL OF         10 INNER ITERATIONS.
    ------------------------------------------------

 NO OUTPUT CONTROL FOR STRESS PERIOD   43   TIME STEP   19
 
 SOLVING FOR HEAD 
                                                   Max.-Head-Change                         Max.-Flux-Residual
  Residual-Control   Outer-Iter.   Inner-Iter.     Column Row Layer    Maximum-Head-Change  Column Row Layer    Maximum-Flux-Residual          L2-NORM 
          0                 1           2             4   13     1       0.6774798812E-02       4   13    1         0.3903904059E+00      0.8999772781E+00
          0                 2           2             7   13     1      -0.3212313109E-02       7   13    1        -0.1782238280E+00      0.1964000307E+00
          0                 3           2             7   13     1       0.2186842381E-03       7   13    1         0.1247194237E-01      0.1368497970E-01
          0                 4           1             7   13     1      -0.8697205659E-05       7   13    1        -0.5098234967E-03      0.5558185604E-03

    ------------------------------------------------
       NWT REQUIRED            4 OUTER ITERATIONS 
       AND A TOTAL OF          7 INNER ITERATIONS.
    ------------------------------------------------

 NO OUTPUT CONTROL FOR STRESS PERIOD   43   TIME STEP   20
 
 SOLVING FOR HEAD 
                                                   Max.-Head-Change                         Max.-Flux-Residual
  Residual-Control   Outer-Iter.   Inner-Iter.     Column Row Layer    Maximum-Head-Change  Column Row Layer    Maximum-Flux-Residual          L2-NORM 
          0                 1           2             4   13     1       0.6172619725E-02       4   13    1         0.3555141788E+00      0.8389159016E+00
          0                 2           2             4    7     1      -0.7001133046E-01       5    6    1        -0.3770396042E+01      0.9272459868E+01
          0                 3           2             4    7     1       0.5298615153E-01       5    6    1         0.2924903873E+01      0.7184170066E+01
          0                 4           2             4    7     1      -0.2126002583E-02       4    7    1        -0.1206948839E+00      0.3072934279E+00
          0                 5           1             7   13     1       0.1002848865E-03       7   13    1         0.5745579697E-02      0.7028295898E-02
          0                 6           1             7   13     1      -0.3988578650E-05       7   13    1        -0.2348292669E-03      0.2422194849E-03

    ------------------------------------------------
       NWT REQUIRED            6 OUTER ITERATIONS 
       AND A TOTAL OF         10 INNER ITERATIONS.
    ------------------------------------------------

 NO OUTPUT CONTROL FOR STRESS PERIOD   43   TIME STEP   21
 
 SOLVING FOR HEAD 
                                                   Max.-Head-Change                         Max.-Flux-Residual
  Residual-Control   Outer-Iter.   Inner-Iter.     Column Row Layer    Maximum-Head-Change  Column Row Layer    Maximum-Flux-Residual          L2-NORM 
          0                 1           2             4   13     1       0.6940510601E-02       4   13    1         0.3998808587E+00      0.9292646322E+00
          0                 2           2             7   13     1      -0.3219269833E-02       7   13    1        -0.1786075447E+00      0.1979874288E+00
          0                 3           2             7   13     1       0.2191579004E-03       7   13    1         0.1249880629E-01      0.1379274815E-01
          0                 4           1             7   13     1      -0.8716228192E-05       7   13    1        -0.5109344897E-03      0.5601667463E-03

    ------------------------------------------------
       NWT REQUIRED            4 OUTER ITERATIONS 
       AND A TOTAL OF          7 INNER ITERATIONS.
    ------------------------------------------------

 NO OUTPUT CONTROL FOR STRESS PERIOD   43   TIME STEP   22
 
 SOLVING FOR HEAD 
                                                   Max.-Head-Change                         Max.-Flux-Residual
  Residual-Control   Outer-Iter.   Inner-Iter.     Column Row Layer    Maximum-Head-Change  Column Row Layer    Maximum-Flux-Residual          L2-NORM 
          0                 1           2             4   13     1       0.6323282267E-02       4   13    1         0.3641380636E+00      0.8668331061E+00
          0                 2           2             4    7     1      -0.7002884081E-01       5    6    1        -0.3771553325E+01      0.9275322002E+01
          0                 3           2             4    7     1       0.5298004783E-01       5    6    1         0.2924985233E+01      0.7184205429E+01
          0                 4           2             4    7     1      -0.2118633642E-02       4    7    1        -0.1202533400E+00      0.3070683421E+00
          0                 5           1             7   13     1       0.1000138649E-03       7   13    1         0.5730058260E-02      0.7014302910E-02
          0                 6           1             7   13     1      -0.3977218799E-05       7   13    1        -0.2341596748E-03      0.2413007329E-03

    ------------------------------------------------
       NWT REQUIRED            6 OUTER ITERATIONS 
       AND A TOTAL OF         10 INNER ITERATIONS.
    ------------------------------------------------

 NO OUTPUT CONTROL FOR STRESS PERIOD   43   TIME STEP   23
 
 SOLVING FOR HEAD 
                                                   Max.-Head-Change                         Max.-Flux-Residual
  Residual-Control   Outer-Iter.   Inner-Iter.     Column Row Layer    Maximum-Head-Change  Column Row Layer    Maximum-Flux-Residual          L2-NORM 
          0                 1           2             4   13     1       0.7078157586E-02       4   13    1         0.4077550477E+00      0.9560202049E+00
          0                 2           2             7   13     1      -0.3225894883E-02       7   13    1        -0.1789729606E+00      0.1994808524E+00
          0                 3           2             7   13     1       0.2196101475E-03       7   13    1         0.1252445387E-01      0.1389453825E-01
          0                 4           1             7   13     1      -0.8734023005E-05       7   13    1        -0.5119742327E-03      0.5641148742E-03

    ------------------------------------------------
       NWT REQUIRED            4 OUTER ITERATIONS 
       AND A TOTAL OF          7 INNER ITERATIONS.
    ------------------------------------------------

 NO OUTPUT CONTROL FOR STRESS PERIOD   43   TIME STEP   24
 
 SOLVING FOR HEAD 
                                                   Max.-Head-Change                         Max.-Flux-Residual
  Residual-Control   Outer-Iter.   Inner-Iter.     Column Row Layer    Maximum-Head-Change  Column Row Layer    Maximum-Flux-Residual          L2-NORM 
          0                 1           2             4   13     1       0.6448465153E-02       4   13    1         0.3712948529E+00      0.8924252341E+00
          0                 2           2             4    7     1      -0.7004620949E-01       5    6    1        -0.3772619377E+01      0.9278009136E+01
          0                 3           2             4    7     1       0.5297424943E-01       5    6    1         0.2925060168E+01      0.7184235072E+01
          0                 4           2             4    7     1      -0.2111583670E-02       4    7    1        -0.1198309077E+00      0.3068540901E+00
          0                 5           1             7   13     1       0.9975475826E-04       7   13    1         0.5715221285E-02      0.7001830426E-02

    ------------------------------------------------
       NWT REQUIRED            5 OUTER ITERATIONS 
       AND A TOTAL OF          9 INNER ITERATIONS.
    ------------------------------------------------

 NO OUTPUT CONTROL FOR STRESS PERIOD   43   TIME STEP   25
 
 SOLVING FOR HEAD 
                                                   Max.-Head-Change                         Max.-Flux-Residual
  Residual-Control   Outer-Iter.   Inner-Iter.     Column Row Layer    Maximum-Head-Change  Column Row Layer    Maximum-Flux-Residual          L2-NORM 
          0                 1           2             4   13     1       0.7192733495E-02       4   13    1         0.4143015559E+00      0.9805243722E+00
          0                 2           2             7   13     1      -0.3232190149E-02       7   13    1        -0.1793201754E+00      0.2008864617E+00
          0                 3           2             7   13     1       0.2200401106E-03       7   13    1         0.1254884015E-01      0.1399112816E-01
          0                 4           1             7   13     1      -0.8752465065E-05       7   13    1        -0.5130469349E-03      0.5679329641E-03

    ------------------------------------------------
       NWT REQUIRED            4 OUTER ITERATIONS 
       AND A TOTAL OF          7 INNER ITERATIONS.
    ------------------------------------------------

 NO OUTPUT CONTROL FOR STRESS PERIOD   43   TIME STEP   26
 
 SOLVING FOR HEAD 
                                                   Max.-Head-Change                         Max.-Flux-Residual
  Residual-Control   Outer-Iter.   Inner-Iter.     Column Row Layer    Maximum-Head-Change  Column Row Layer    Maximum-Flux-Residual          L2-NORM 
          0                 1           2             4   13     1       0.6552894817E-02       4   13    1         0.3772578596E+00      0.9159576384E+00
          0                 2           2             4    7     1      -0.7006337804E-01       5    6    1        -0.3773606071E+01      0.9280536883E+01
          0                 3           2             4    7     1       0.5296874222E-01       5    6    1         0.2925129511E+01      0.7184256781E+01
          0                 4           2             4    7     1      -0.2107693667E-02       4    8    1        -0.1196134980E+00      0.3066879237E+00
          0                 5           1             7   13     1       0.9950919262E-04       7   13    1         0.5701158393E-02      0.6988956699E-02

    ------------------------------------------------
       NWT REQUIRED            5 OUTER ITERATIONS 
       AND A TOTAL OF          9 INNER ITERATIONS.
    ------------------------------------------------

 NO OUTPUT CONTROL FOR STRESS PERIOD   43   TIME STEP   27
 
 SOLVING FOR HEAD 
                                                   Max.-Head-Change                         Max.-Flux-Residual
  Residual-Control   Outer-Iter.   Inner-Iter.     Column Row Layer    Maximum-Head-Change  Column Row Layer    Maximum-Flux-Residual          L2-NORM 
          0                 1           2             4   13     1       0.7288348762E-02       4   13    1         0.4197576160E+00      0.1003008843E+01
          0                 2           2             7   13     1      -0.3238205851E-02       7   13    1        -0.1796519515E+00      0.2022078228E+00
          0                 3           2             7   13     1       0.2204481853E-03       7   13    1         0.1257198161E-01      0.1408155325E-01
          0                 4           1             7   13     1      -0.8767025253E-05       7   13    1        -0.5138989345E-03      0.5714535537E-03

    ------------------------------------------------
       NWT REQUIRED            4 OUTER ITERATIONS 
       AND A TOTAL OF          7 INNER ITERATIONS.
    ------------------------------------------------

 NO OUTPUT CONTROL FOR STRESS PERIOD   43   TIME STEP   28
 
 SOLVING FOR HEAD 
                                                   Max.-Head-Change                         Max.-Flux-Residual
  Residual-Control   Outer-Iter.   Inner-Iter.     Column Row Layer    Maximum-Head-Change  Column Row Layer    Maximum-Flux-Residual          L2-NORM 
          0                 1           2             4   13     1       0.6640226008E-02       4   13    1         0.3822380476E+00      0.9376431089E+00
          0                 2           2             4    7     1      -0.7008182895E-01       5    6    1        -0.3774517178E+01      0.9282953236E+01
          0                 3           2             4    7     1       0.5296361125E-01       5    6    1         0.2925193532E+01      0.7184280212E+01
          0                 4           2             4    7     1      -0.2107489474E-02       4    8    1        -0.1196161386E+00      0.3066382229E+00
          0                 5           1             7   13     1       0.9927248772E-04       7   13    1         0.5687603684E-02      0.6978046117E-02

    ------------------------------------------------
       NWT REQUIRED            5 OUTER ITERATIONS 
       AND A TOTAL OF          9 INNER ITERATIONS.
    ------------------------------------------------

 NO OUTPUT CONTROL FOR STRESS PERIOD   43   TIME STEP   29
 
 SOLVING FOR HEAD 
                                                   Max.-Head-Change                         Max.-Flux-Residual
  Residual-Control   Outer-Iter.   Inner-Iter.     Column Row Layer    Maximum-Head-Change  Column Row Layer    Maximum-Flux-Residual          L2-NORM 
          0                 1           2             4   13     1       0.7368534217E-02       4   13    1         0.4243275062E+00      0.1023706834E+01
          0                 2           2             7   13     1      -0.3243920551E-02       7   13    1        -0.1799671272E+00      0.2034506006E+00
          0                 3           2             7   13     1       0.2208370785E-03       7   13    1         0.1259403137E-01      0.1416671441E-01
          0                 4           1             7   13     1      -0.8783685368E-05       7   13    1        -0.5148691230E-03      0.5748038965E-03

    ------------------------------------------------
       NWT REQUIRED            4 OUTER ITERATIONS 
       AND A TOTAL OF          7 INNER ITERATIONS.
    ------------------------------------------------

 NO OUTPUT CONTROL FOR STRESS PERIOD   43   TIME STEP   30



 STREAM LISTING     PERIOD     43   STEP       30

 LAYER ROW COL. STREAM  RCH.  FLOW INTO     FLOW TO   FLOW OUT OF   OVRLND.     DIRECT     STREAM       STREAM     STREAM     STREAM   STREAMBED  STREAMBED
                SEG.NO.  NO.  STRM. RCH.    AQUIFER    STRM. RCH.    RUNOFF     PRECIP       ET          HEAD       DEPTH      WIDTH   CONDCTNC.   GRADIENT

   1    1    1     1     1    4.3499E+01  3.1564E-01   4.3183E+01  0.000E+00  0.000E+00  0.000E+00  1.09440E+03  1.356E+00  1.610E+01  7.246E-02  1.452E+00
   1    2    2     1     2    4.3183E+01  4.8894E-01   4.2694E+01  0.000E+00  0.000E+00  0.000E+00  1.08941E+03  1.354E+00  1.604E+01  1.123E-01  1.451E+00
   1    3    3     1     3    4.2694E+01  4.1710E-01   4.2277E+01  0.000E+00  0.000E+00  0.000E+00  1.08377E+03  1.350E+00  1.598E+01  9.588E-02  1.450E+00
   1    3    4     1     4    4.2277E+01  3.8418E-01   4.1893E+01  0.000E+00  0.000E+00  0.000E+00  1.07876E+03  1.347E+00  1.592E+01  8.837E-02  1.449E+00
   1    4    5     2     1    3.9893E+01  3.5834E-01   3.9534E+01  0.000E+00  0.000E+00  0.000E+00  1.07353E+03  1.594E+00  1.200E+01  7.800E-02  1.531E+00
   1    5    6     2     2    3.9534E+01  2.7519E-01   3.9259E+01  0.000E+00  0.000E+00  0.000E+00  1.06810E+03  1.586E+00  1.200E+01  6.000E-02  1.529E+00
   1    6    6     2     3    3.9259E+01  2.7479E-01   3.8985E+01  0.000E+00  0.000E+00  0.000E+00  1.06337E+03  1.580E+00  1.200E+01  6.000E-02  1.527E+00
   1    7    6     2     4    3.8985E+01  2.7439E-01   3.8710E+01  0.000E+00  0.000E+00  0.000E+00  1.05865E+03  1.573E+00  1.200E+01  6.000E-02  1.524E+00
   1    8    6     2     5    3.8710E+01  2.7399E-01   3.8436E+01  0.000E+00  0.000E+00  0.000E+00  1.05392E+03  1.566E+00  1.200E+01  6.000E-02  1.522E+00
   1    3    5     3     1    2.0000E+00  2.8252E-01   1.7175E+00  0.000E+00  0.000E+00  0.000E+00  1.07555E+03  1.909E+00  9.636E+00  7.227E-02  1.955E+00
   1    3    6     3     2    1.7175E+00  2.4905E-01   1.4684E+00  0.000E+00  0.000E+00  0.000E+00  1.07264E+03  1.727E+00  8.909E+00  6.682E-02  1.864E+00
   1    3    7     3     3    1.4684E+00  1.9718E-01   1.2712E+00  0.000E+00  0.000E+00  0.000E+00  1.06987E+03  1.555E+00  8.218E+00  5.547E-02  1.777E+00
   1    4    8     3     4    1.2712E+00  2.2567E-01   1.0456E+00  0.000E+00  0.000E+00  0.000E+00  1.06682E+03  1.364E+00  7.455E+00  6.709E-02  1.682E+00
   1    5    8     3     5    1.0456E+00  1.5790E-01   8.8768E-01  0.000E+00  0.000E+00  0.000E+00  1.06362E+03  1.164E+00  6.655E+00  4.991E-02  1.582E+00
   1    6    8     3     6    8.8768E-01  5.5980E-02   8.3170E-01  0.000E+00  0.000E+00  0.000E+00  1.06158E+03  1.036E+00  6.145E+00  1.844E-02  1.518E+00
   1    5   10     4     1    1.0000E+01  9.0919E-02   9.9091E+00  0.000E+00  0.000E+00  0.000E+00  1.07836E+03  6.368E-01  1.000E+01  2.500E-02  1.212E+00
   1    5    9     4     2    9.9091E+00  1.8158E-01   9.7275E+00  0.000E+00  0.000E+00  0.000E+00  1.07154E+03  6.315E-01  1.000E+01  5.000E-02  1.211E+00
   1    6    8     4     3    9.7275E+00  1.2689E-01   9.6006E+00  0.000E+00  0.000E+00  0.000E+00  1.06381E+03  6.256E-01  1.000E+01  3.500E-02  1.209E+00
   1    6    8     5     1    1.0432E+01  2.2686E-01   1.0205E+01  0.000E+00  0.000E+00  0.000E+00  1.05868E+03  6.790E-01  1.542E+01  6.166E-02  1.226E+00
   1    7    7     5     2    1.0205E+01  2.7894E-01   9.9265E+00  0.000E+00  0.000E+00  0.000E+00  1.05417E+03  6.732E-01  1.519E+01  7.594E-02  1.224E+00
   1    8    7     5     3    9.9265E+00  1.9221E-01   9.7343E+00  0.000E+00  0.000E+00  0.000E+00  1.04992E+03  6.676E-01  1.497E+01  5.241E-02  1.223E+00
   1    8    6     5     4    9.7343E+00  1.3577E-01   9.5985E+00  0.000E+00  0.000E+00  0.000E+00  1.04691E+03  6.637E-01  1.482E+01  3.706E-02  1.221E+00
   1    9    6     6     1    4.8035E+01  2.8821E-01   4.7746E+01  0.000E+00  0.000E+00  0.000E+00  1.04453E+03  1.804E+00  1.200E+01  6.000E-02  1.601E+00
   1   10    7     6     2    4.7746E+01  2.8782E-01   4.7459E+01  0.000E+00  0.000E+00  0.000E+00  1.03998E+03  1.797E+00  1.200E+01  6.000E-02  1.599E+00
   1   11    7     6     3    4.7459E+01  2.8743E-01   4.7171E+01  0.000E+00  0.000E+00  0.000E+00  1.03543E+03  1.790E+00  1.200E+01  6.000E-02  1.597E+00
   1   12    7     6     4    4.7171E+01  2.8704E-01   4.6884E+01  0.000E+00  0.000E+00  0.000E+00  1.03087E+03  1.784E+00  1.200E+01  6.000E-02  1.595E+00
   1   13    7     6     5    4.6884E+01  1.7994E-02   4.6866E+01  0.000E+00  0.000E+00  0.000E+00  1.02769E+03  1.780E+00  1.200E+01  2.400E-02  2.499E-01
   1   14    9     7     1    1.5000E+02  1.3538E+00   1.4865E+02  0.000E+00  0.000E+00  0.000E+00  1.03987E+03  2.288E+00  5.529E+01  5.593E-01  8.069E-01
   1   13    8     7     2    1.4865E+02  1.8827E+00   1.4676E+02  0.000E+00  0.000E+00  0.000E+00  1.03478E+03  2.279E+00  5.526E+01  6.148E-01  1.021E+00
   1   13    7     7     3    1.4676E+02  1.5354E+00   1.4523E+02  0.000E+00  0.000E+00  0.000E+00  1.02969E+03  2.270E+00  5.521E+01  5.584E-01  9.165E-01
   1   13    6     8     1    1.9209E+02  1.0717E+00   1.9102E+02  0.000E+00  0.000E+00  0.000E+00  1.02496E+03  3.087E+00  4.477E+01  4.562E-01  7.831E-01
   1   13    5     8     2    1.9102E+02  2.7585E-01   1.9075E+02  0.000E+00  0.000E+00  0.000E+00  1.01871E+03  3.083E+00  4.471E+01  4.556E-01  2.018E-01
   1   13    4     8     3    1.9075E+02 -1.9204E+00   1.9267E+02  0.000E+00  0.000E+00  0.000E+00  1.01246E+03  3.088E+00  4.478E+01  4.563E+00 -1.403E-01
   1   13    3     8     4    1.9267E+02 -3.2452E+00   1.9591E+02  0.000E+00  0.000E+00  0.000E+00  1.00623E+03  3.104E+00  4.501E+01  4.586E+00 -2.359E-01
   1   13    2     8     5    1.9591E+02 -2.1968E+00   1.9811E+02  0.000E+00  0.000E+00  0.000E+00  9.99995E+02  3.120E+00  4.524E+01  4.610E+00 -1.588E-01
   1   13    1     8     6    1.9811E+02 -1.8054E+00   1.9991E+02  0.000E+00  0.000E+00  0.000E+00  9.95007E+02  3.132E+00  4.541E+01  2.777E+00 -2.167E-01
   1    8    6     9     1    0.0000E+00  0.0000E+00   0.0000E+00  0.000E+00  0.000E+00  0.000E+00  1.07875E+03  0.000E+00  4.000E+00  0.000E+00  1.000E+00
   1    8    5     9     2    0.0000E+00  0.0000E+00   0.0000E+00  0.000E+00  0.000E+00  0.000E+00  1.07825E+03  0.000E+00  4.000E+00  0.000E+00  1.000E+00





UNSATURATED ZONE PACKAGE VOLUMETRIC BUDGET FOR  TIME STEP    30 STRESS PERIOD   43
  ------------------------------------------------------------------------------



     CUMULATIVE VOLUMES      L**3       RATES FOR THIS TIME STEP      L**3/T
     ------------------                 ------------------------

           IN:                                      IN:
           ---                                      ---
        INFILTRATION =  1638779050.9166          INFILTRATION =           0.8475

          OUT:                                     OUT:
          ----                                     ----
              UZF ET =  1377010638.9298                UZF ET =          23.5094
        UZF RECHARGE =    81203290.6307          UZF RECHARGE =       0.0000E+00

            IN - OUT =   180565121.3561              IN - OUT =         -22.6619

          STORAGE:                                 STORAGE:
          --------                                 --------
      STORAGE CHANGE =   180566767.7808        STORAGE CHANGE =         -22.6617

 PERCENT DISCREPANCY IS DIFFERENCE BETWEEN IN-OUT MINUS CHANGE IN STORAGE
 DIVIDED BY THE AVERAGE OF IN AND OUT TIMES 100

 PERCENT DISCREPANCY =          -0.00     PERCENT DISCREPANCY =          -0.00






1
  VOLUMETRIC BUDGET FOR AGRICULTURAL FIELDS AT  END OF TIME STEP   30, STRESS PERIOD  43
  ------------------------------------------------------------------------------

     CUMULATIVE VOLUMES      L**3       RATES FOR THIS TIME STEP      L**3/T
     ------------------                 ------------------------

           IN:                                      IN:
           ---                                      ---
               AG WELLS  =   550183360.0000                 AG WELLS  =           0.0000
      DIVERSION SEGMENTS =   994897792.0000        DIVERSION SEGMENTS =           0.0000
           GW IRRIGATION =           0.0000             GW IRRIGATION =           0.0000
           SW IRRIGATION =           0.0000             SW IRRIGATION =           0.0000
        SYSTEM LOSSES GW =           0.0000          SYSTEM LOSSES GW =           0.0000
        SYSTEM LOSSES SW =           0.0000          SYSTEM LOSSES SW =           0.0000

                TOTAL IN =  1545081088.0000                  TOTAL IN =           0.0000

          OUT:                                     OUT:
          ----                                     ----
               AG WELLS  =           0.0000                 AG WELLS  =           0.0000
      DIVERSION SEGMENTS =           0.0000        DIVERSION SEGMENTS =           0.0000
           GW IRRIGATION =   550183360.0000             GW IRRIGATION =           0.0000
           SW IRRIGATION =   994917632.0000             SW IRRIGATION =           0.0000
        SYSTEM LOSSES GW =           0.0000          SYSTEM LOSSES GW =           0.0000
        SYSTEM LOSSES SW =           0.0000          SYSTEM LOSSES SW =           0.0000

               TOTAL OUT =  1545101056.0000                 TOTAL OUT =           0.0000

                IN - OUT =      -19968.0000                  IN - OUT =           0.0000

     PERCENT DISCREPANCY =          -0.00         PERCENT DISCREPANCY =           0.00



1
  VOLUMETRIC BUDGET FOR ENTIRE MODEL AT END OF TIME STEP   30, STRESS PERIOD  43
  ------------------------------------------------------------------------------

     CUMULATIVE VOLUMES      L**3       RATES FOR THIS TIME STEP      L**3/T
     ------------------                 ------------------------

           IN:                                      IN:
           ---                                      ---
             STORAGE     =   930542272.0000               STORAGE     =           0.8579
       CONSTANT HEAD     =           0.0000         CONSTANT HEAD     =           0.0000
     HEAD DEP BOUNDS     =    31626972.0000       HEAD DEP BOUNDS     =           0.2870
      STREAM LEAKAGE     =  1336996480.0000        STREAM LEAKAGE     =          12.7519
        UZF RECHARGE     =    81203288.0000          UZF RECHARGE     =           0.0000
               GW ET     =           0.0000                 GW ET     =           0.0000
     SURFACE LEAKAGE     =           0.0000       SURFACE LEAKAGE     =           0.0000
           AG WELLS      =           0.0000             AG WELLS      =           0.0000

                TOTAL IN =  2380368896.0000                  TOTAL IN =          13.8968

          OUT:                                     OUT:
          ----                                     ----
             STORAGE     =   623155136.0000               STORAGE     =           4.4381
       CONSTANT HEAD     =           0.0000         CONSTANT HEAD     =           0.0000
     HEAD DEP BOUNDS     =    32158004.0000       HEAD DEP BOUNDS     =           0.2910
      STREAM LEAKAGE     =  1171936896.0000        STREAM LEAKAGE     =           9.1678
        UZF RECHARGE     =           0.0000          UZF RECHARGE     =           0.0000
               GW ET     =     2951485.0000                 GW ET     =           0.0000
     SURFACE LEAKAGE     =           0.0000       SURFACE LEAKAGE     =           0.0000
           AG WELLS      =   550183360.0000             AG WELLS      =           0.0000

               TOTAL OUT =  2380384768.0000                 TOTAL OUT =          13.8968

                IN - OUT =      -15872.0000                  IN - OUT =       2.1935E-05

     PERCENT DISCREPANCY =          -0.00         PERCENT DISCREPANCY =           0.00






         TIME SUMMARY AT END OF TIME STEP   30 IN STRESS PERIOD   43
                    SECONDS     MINUTES      HOURS       DAYS        YEARS
                    -----------------------------------------------------------
   TIME STEP LENGTH  87667.      1461.1      24.352      1.0147     2.77799E-03
 STRESS PERIOD TIME 2.63000E+06  43833.      730.56      30.440     8.33397E-02
         TOTAL TIME 1.10545E+08 1.84242E+06  30707.      1279.5      3.5030    
1
1
                            STRESS PERIOD NO.   44, LENGTH =   2630000.    
                            -----------------------------------------------

                              NUMBER OF TIME STEPS =    30

                               MULTIPLIER FOR DELT =     1.000

                            INITIAL TIME STEP SIZE =   87666.66    

 REUSING NON-PARAMETER GHB CELLS FROM LAST STRESS PERIOD

      2 GHB CELLS

 REUSING STREAM SEGMENT DATA FROM LAST STRESS PERIOD



            AREAL INFILTRATION RATE
 READING ON UNIT   19 WITH FORMAT: (FREE)              

            1           2           3           4           5           6           7           8           9          10
 ........................................................................................................................
   1   1.0000E-10  2.0000E-10   0.000       0.000       0.000       0.000       0.000       0.000       0.000       0.000    
   2   2.0000E-10  1.0000E-10  2.0000E-10   0.000       0.000      8.0000E-10  8.0000E-10  5.0000E-10   0.000       0.000    
   3    0.000      5.0000E-10  1.0000E-10  1.0000E-10  8.0000E-10  8.0000E-10  5.0000E-10  5.0000E-10   0.000       0.000    
   4   8.0000E-10  5.0000E-10  1.0000E-10  1.0000E-10  1.0000E-10  1.0000E-10  1.0000E-10  1.0000E-10  2.0000E-10   0.000    
   5   8.0000E-10  5.0000E-10  1.0000E-10  1.0000E-10  1.0000E-10  1.0000E-10  1.0000E-10  1.0000E-10  1.0000E-10  1.0000E-10
   6   8.0000E-10  5.0000E-10  5.0000E-10  2.0000E-10  2.0000E-10  1.0000E-10  1.0000E-10  1.0000E-10  1.0000E-10  5.0000E-10
   7   8.0000E-10  5.0000E-10  5.0000E-10  2.0000E-10  2.0000E-10  1.0000E-10  1.0000E-10  2.0000E-10  2.0000E-10   0.000    
   8    0.000      5.0000E-10  5.0000E-10  2.0000E-10  2.0000E-10  1.0000E-10  1.0000E-10  2.0000E-10  5.0000E-10   0.000    
   9    0.000      5.0000E-10  5.0000E-10  2.0000E-10  2.0000E-10  1.0000E-10  1.0000E-10  2.0000E-10  5.0000E-10   0.000    
  10    0.000      5.0000E-10  5.0000E-10  2.0000E-10  2.0000E-10  1.0000E-10  1.0000E-10  2.0000E-10  5.0000E-10  8.0000E-10
  11    0.000      1.0000E-10  1.0000E-10  1.0000E-10  1.0000E-10  1.0000E-10  1.0000E-10  2.0000E-10  5.0000E-10   0.000    
  12   1.0000E-10  1.0000E-10  1.0000E-10  1.0000E-10  1.0000E-10  1.0000E-10  1.0000E-10  1.0000E-10  2.0000E-10   0.000    
  13   1.0000E-10  1.0000E-10  2.0000E-10  2.0000E-10  2.0000E-10  2.0000E-10  2.0000E-10  1.0000E-10  1.0000E-10   0.000    
  14    0.000      2.0000E-10  5.0000E-10  5.0000E-10  5.0000E-10  5.0000E-10  5.0000E-10  2.0000E-10  1.0000E-10   0.000    
  15    0.000       0.000      8.0000E-10  8.0000E-10  8.0000E-10  8.0000E-10   0.000       0.000       0.000       0.000    

                  ET RATE =  4.000000E-07

 USING ET EXTINCTION DEPTH FROM PREVIOUS STRESS PERIOD. CURRENT PERIOD IS:      44

 USING EXTINCTION WATER CONTENT FROM PREVIOUS STRESS PERIOD. CURRENT PERIOD IS:      44

 USING AIR ENTRY PRESSURE FROM PREVIOUS STRESS PERIOD. CURRENT PERIOD IS:      44

 USING ROOT PRESSURE HEAD FROM PREVIOUS STRESS PERIOD. CURRENT PERIOD IS:      44

 USING ROOT ACTIVITY FROM PREVIOUS STRESS PERIOD. CURRENT PERIOD IS:      44

 PROCESSING AG STRESS PERIOD DATA

 READING AG STRESS PERIOD DATA

 READING IRRIGATION SEGMENT

 READING IRRIGATION WELL

 READING SUPPLEMENTAL WELL

 END PROCESSING AG STRESS PERIOD DATA OPTIONS
 
 SOLVING FOR HEAD 
                                                   Max.-Head-Change                         Max.-Flux-Residual
  Residual-Control   Outer-Iter.   Inner-Iter.     Column Row Layer    Maximum-Head-Change  Column Row Layer    Maximum-Flux-Residual          L2-NORM 
          0                 1           2             4   13     1       0.6713399730E-02       4   13    1         0.3864052588E+00      0.9576488153E+00
          0                 2           2             4    7     1      -0.2534358625E+00       5    6    1        -0.1361434219E+02      0.3337348428E+02
          0                 3           2             4    7     1       0.1725712367E-01       5    6    1         0.9528191044E+00      0.2336015718E+01
          0                 4           2             4    7     1      -0.6866789799E-03       5    6    1        -0.3895422590E-01      0.9563916901E-01
          0                 5           1             4    7     1       0.8467046413E-05       4    7    1         0.4934354440E-03      0.1235969188E-02

    ------------------------------------------------
       NWT REQUIRED            5 OUTER ITERATIONS 
       AND A TOTAL OF          9 INNER ITERATIONS.
    ------------------------------------------------

 NO OUTPUT CONTROL FOR STRESS PERIOD   44   TIME STEP    1
 
 SOLVING FOR HEAD 
                                                   Max.-Head-Change                         Max.-Flux-Residual
  Residual-Control   Outer-Iter.   Inner-Iter.     Column Row Layer    Maximum-Head-Change  Column Row Layer    Maximum-Flux-Residual          L2-NORM 
          0                 1           2             5    8     1       0.1251186353E-01       5    8    1         0.6829674722E+00      0.1623872227E+01
          0                 2           2             4    7     1      -0.9456687620E-01       5    8    1        -0.5117334694E+01      0.1255574296E+02
          0                 3           2             4    7     1       0.3103315027E-01       5    8    1         0.1715131678E+01      0.4204823398E+01
          0                 4           2             4    7     1      -0.1234844033E-02       5    8    1        -0.7012921842E-01      0.1724233304E+00
          0                 5           1             4    7     1       0.1522615266E-04       4    8    1         0.8875176297E-03      0.2263877846E-02

    ------------------------------------------------
       NWT REQUIRED            5 OUTER ITERATIONS 
       AND A TOTAL OF          9 INNER ITERATIONS.
    ------------------------------------------------

 NO OUTPUT CONTROL FOR STRESS PERIOD   44   TIME STEP    2
 
 SOLVING FOR HEAD 
                                                   Max.-Head-Change                         Max.-Flux-Residual
  Residual-Control   Outer-Iter.   Inner-Iter.     Column Row Layer    Maximum-Head-Change  Column Row Layer    Maximum-Flux-Residual          L2-NORM 
          0                 1           2             5    8     1       0.1386379982E-01       5    8    1         0.7570592880E+00      0.1795770955E+01
          0                 2           2             4    7     1      -0.2531727667E+00       5    8    1        -0.1363543801E+02      0.3338946894E+02
          0                 3           2             4    7     1       0.1723974787E-01       5    6    1         0.9542585374E+00      0.2337773203E+01
          0                 4           2             4    7     1      -0.6859875152E-03       5    6    1        -0.3901487066E-01      0.9567370187E-01
          0                 5           1             4    7     1       0.8458520852E-05       5    6    1         0.4934575097E-03      0.1229251843E-02

    ------------------------------------------------
       NWT REQUIRED            5 OUTER ITERATIONS 
       AND A TOTAL OF          9 INNER ITERATIONS.
    ------------------------------------------------

 NO OUTPUT CONTROL FOR STRESS PERIOD   44   TIME STEP    3
 
 SOLVING FOR HEAD 
                                                   Max.-Head-Change                         Max.-Flux-Residual
  Residual-Control   Outer-Iter.   Inner-Iter.     Column Row Layer    Maximum-Head-Change  Column Row Layer    Maximum-Flux-Residual          L2-NORM 
          0                 1           2             5    8     1       0.2033089251E-01       5    8    1         0.1112860936E+01      0.2515183198E+01
          0                 2           2             4    7     1      -0.9480856378E-01       5    8    1        -0.5162725247E+01      0.1263458813E+02
          0                 3           2             4    7     1       0.3100619309E-01       5    8    1         0.1715925839E+01      0.4204349357E+01
          0                 4           2             4    7     1      -0.1233771306E-02       5    8    1        -0.7016346011E-01      0.1724010706E+00
          0                 5           1             4    7     1       0.1521292584E-04       5    6    1         0.8878257495E-03      0.2262324117E-02

    ------------------------------------------------
       NWT REQUIRED            5 OUTER ITERATIONS 
       AND A TOTAL OF          9 INNER ITERATIONS.
    ------------------------------------------------

 NO OUTPUT CONTROL FOR STRESS PERIOD   44   TIME STEP    4
 
 SOLVING FOR HEAD 
                                                   Max.-Head-Change                         Max.-Flux-Residual
  Residual-Control   Outer-Iter.   Inner-Iter.     Column Row Layer    Maximum-Head-Change  Column Row Layer    Maximum-Flux-Residual          L2-NORM 
          0                 1           2             5    8     1       0.2126219210E-01       5    8    1         0.1163468237E+01      0.2648903178E+01
          0                 2           2             4    7     1      -0.2533802914E+00       5    8    1        -0.1367606446E+02      0.3345907954E+02
          0                 3           2             4    7     1       0.1725388558E-01       5    6    1         0.9570666186E+00      0.2342622681E+01
          0                 4           2             4    7     1      -0.6865500378E-03       5    6    1        -0.3913124137E-01      0.9586759338E-01
          0                 5           1             4    7     1       0.8465456922E-05       5    6    1         0.4950355510E-03      0.1230465768E-02

    ------------------------------------------------
       NWT REQUIRED            5 OUTER ITERATIONS 
       AND A TOTAL OF          9 INNER ITERATIONS.
    ------------------------------------------------

 NO OUTPUT CONTROL FOR STRESS PERIOD   44   TIME STEP    5
 
 SOLVING FOR HEAD 
                                                   Max.-Head-Change                         Max.-Flux-Residual
  Residual-Control   Outer-Iter.   Inner-Iter.     Column Row Layer    Maximum-Head-Change  Column Row Layer    Maximum-Flux-Residual          L2-NORM 
          0                 1           2             5    8     1       0.2733173570E-01       5    8    1         0.1497133266E+01      0.3329058323E+01
          0                 2           2             4    7     1      -0.9502491083E-01       5    8    1        -0.5201154933E+01      0.1270126942E+02
          0                 3           2             4    7     1       0.2381514451E-01       5    8    1         0.1321038714E+01      0.3232104254E+01
          0                 4           2             4    7     1      -0.9476302779E-03       5    8    1        -0.5401824854E-01      0.1324282921E+00
          0                 5           1             4    7     1       0.1168468691E-04       5    8    1         0.6836574275E-03      0.1721501278E-02

    ------------------------------------------------
       NWT REQUIRED            5 OUTER ITERATIONS 
       AND A TOTAL OF          9 INNER ITERATIONS.
    ------------------------------------------------

 NO OUTPUT CONTROL FOR STRESS PERIOD   44   TIME STEP    6
 
 SOLVING FOR HEAD 
                                                   Max.-Head-Change                         Max.-Flux-Residual
  Residual-Control   Outer-Iter.   Inner-Iter.     Column Row Layer    Maximum-Head-Change  Column Row Layer    Maximum-Flux-Residual          L2-NORM 
          0                 1           2             5    8     1       0.2810347178E-01       5    8    1         0.1538717350E+01      0.3442311897E+01
          0                 2           2             4    7     1      -0.2626941355E+00       5    8    1        -0.1420121456E+02      0.3471330035E+02
          0                 3           2             4    7     1       0.1788810141E-01       5    8    1         0.9938035439E+00      0.2430416726E+01
          0                 4           2             4    7     1      -0.7117861855E-03       5    6    1        -0.4063440617E-01      0.9945749847E-01
          0                 5           1             4    7     1       0.8776629208E-05       5    6    1         0.5141397960E-03      0.1275160144E-02

    ------------------------------------------------
       NWT REQUIRED            5 OUTER ITERATIONS 
       AND A TOTAL OF          9 INNER ITERATIONS.
    ------------------------------------------------

 NO OUTPUT CONTROL FOR STRESS PERIOD   44   TIME STEP    7
 
 SOLVING FOR HEAD 
                                                   Max.-Head-Change                         Max.-Flux-Residual
  Residual-Control   Outer-Iter.   Inner-Iter.     Column Row Layer    Maximum-Head-Change  Column Row Layer    Maximum-Flux-Residual          L2-NORM 
          0                 1           2             5    8     1       0.3407244735E-01       5    8    1         0.1866550757E+01      0.4152675659E+01
          0                 2           2             5    7     1      -0.9529075357E-01       5    8    1        -0.5238099361E+01      0.1276867139E+02
          0                 3           2             4    7     1       0.2219987584E-01       5    8    1         0.1234941089E+01      0.3016184662E+01
          0                 4           2             4    7     1      -0.8833567293E-03       5    8    1        -0.5049794175E-01      0.1235558846E+00
          0                 5           1             4    7     1       0.1089216716E-04       5    8    1         0.6391933096E-03      0.1601755496E-02

    ------------------------------------------------
       NWT REQUIRED            5 OUTER ITERATIONS 
       AND A TOTAL OF          9 INNER ITERATIONS.
    ------------------------------------------------

 NO OUTPUT CONTROL FOR STRESS PERIOD   44   TIME STEP    8
 
 SOLVING FOR HEAD 
                                                   Max.-Head-Change                         Max.-Flux-Residual
  Residual-Control   Outer-Iter.   Inner-Iter.     Column Row Layer    Maximum-Head-Change  Column Row Layer    Maximum-Flux-Residual          L2-NORM 
          0                 1           2             5    8     1       0.3450158579E-01       5    8    1         0.1891640506E+01      0.4239801585E+01
          0                 2           2             4    7     1      -0.2629438555E+00       5    6    1        -0.1423413761E+02      0.3477718006E+02
          0                 3           2             4    7     1       0.1790521065E-01       5    8    1         0.1008726105E+01      0.2440132638E+01
          0                 4           2             4    7     1      -0.7124668088E-03       5    8    1        -0.4125013447E-01      0.9985240612E-01
          0                 5           1             4    7     1       0.8785021695E-05       5    8    1         0.5222961281E-03      0.1278958678E-02

    ------------------------------------------------
       NWT REQUIRED            5 OUTER ITERATIONS 
       AND A TOTAL OF          9 INNER ITERATIONS.
    ------------------------------------------------

 NO OUTPUT CONTROL FOR STRESS PERIOD   44   TIME STEP    9
 
 SOLVING FOR HEAD 
                                                   Max.-Head-Change                         Max.-Flux-Residual
  Residual-Control   Outer-Iter.   Inner-Iter.     Column Row Layer    Maximum-Head-Change  Column Row Layer    Maximum-Flux-Residual          L2-NORM 
          0                 1           2             5    8     1       0.4032553923E-01       5    8    1         0.2211963665E+01      0.4925979040E+01
          0                 2           2             5    6     1      -0.9574474192E-01       5    8    1        -0.5272635562E+01      0.1283294727E+02
          0                 3           2             4    7     1       0.2221732792E-01       5    8    1         0.1236041712E+01      0.3020038862E+01
          0                 4           2             4    7     1      -0.8840509312E-03       5    8    1        -0.5054330853E-01      0.1237121668E+00
          0                 5           1             4    7     1       0.1090072722E-04       5    8    1         0.6397921293E-03      0.1603416246E-02

    ------------------------------------------------
       NWT REQUIRED            5 OUTER ITERATIONS 
       AND A TOTAL OF          9 INNER ITERATIONS.
    ------------------------------------------------

 NO OUTPUT CONTROL FOR STRESS PERIOD   44   TIME STEP   10
 
 SOLVING FOR HEAD 
                                                   Max.-Head-Change                         Max.-Flux-Residual
  Residual-Control   Outer-Iter.   Inner-Iter.     Column Row Layer    Maximum-Head-Change  Column Row Layer    Maximum-Flux-Residual          L2-NORM 
          0                 1           2             5    8     1       0.4050206001E-01       5    8    1         0.2220385412E+01      0.4980633454E+01
          0                 2           2             4    7     1      -0.2632054723E+00       5    8    1        -0.1426937740E+02      0.3483974062E+02
          0                 3           2             4    7     1       0.1792295938E-01       5    8    1         0.9987206846E+00      0.2439353051E+01
          0                 4           2             4    7     1      -0.7131730325E-03       5    8    1        -0.4083644417E-01      0.9981779561E-01
          0                 5           1             4    7     1       0.8793729953E-05       5    6    1         0.5167594118E-03      0.1278168269E-02

    ------------------------------------------------
       NWT REQUIRED            5 OUTER ITERATIONS 
       AND A TOTAL OF          9 INNER ITERATIONS.
    ------------------------------------------------

 NO OUTPUT CONTROL FOR STRESS PERIOD   44   TIME STEP   11
 
 SOLVING FOR HEAD 
                                                   Max.-Head-Change                         Max.-Flux-Residual
  Residual-Control   Outer-Iter.   Inner-Iter.     Column Row Layer    Maximum-Head-Change  Column Row Layer    Maximum-Flux-Residual          L2-NORM 
          0                 1           2             5    8     1       0.4602213840E-01       5    8    1         0.2523778736E+01      0.5637230050E+01
          0                 2           2             5    6     1      -0.9628197467E-01       5    8    1        -0.5303816554E+01      0.1289324040E+02
          0                 3           2             4    7     1       0.2223550150E-01       5    8    1         0.1238224387E+01      0.3024157812E+01
          0                 4           2             4    7     1      -0.8847740533E-03       5    8    1        -0.5063337464E-01      0.1238799920E+00
          0                 5           1             4    7     1       0.1090964338E-04       5    8    1         0.6409875068E-03      0.1605233198E-02

    ------------------------------------------------
       NWT REQUIRED            5 OUTER ITERATIONS 
       AND A TOTAL OF          9 INNER ITERATIONS.
    ------------------------------------------------

 NO OUTPUT CONTROL FOR STRESS PERIOD   44   TIME STEP   12
 
 SOLVING FOR HEAD 
                                                   Max.-Head-Change                         Max.-Flux-Residual
  Residual-Control   Outer-Iter.   Inner-Iter.     Column Row Layer    Maximum-Head-Change  Column Row Layer    Maximum-Flux-Residual          L2-NORM 
          0                 1           2             5    8     1       0.4591511983E-01       5    8    1         0.2516415658E+01      0.5662472909E+01
          0                 2           2             4    7     1      -0.2634762458E+00       5    8    1        -0.1429897994E+02      0.3489733544E+02
          0                 3           2             4    7     1       0.1794140128E-01       5    8    1         0.1000803791E+01      0.2443380338E+01
          0                 4           2             4    7     1      -0.7139068367E-03       5    8    1        -0.4092270196E-01      0.9998122813E-01
          0                 5           1             4    7     1       0.8802778511E-05       5    8    1         0.5179157713E-03      0.1279720189E-02

    ------------------------------------------------
       NWT REQUIRED            5 OUTER ITERATIONS 
       AND A TOTAL OF          9 INNER ITERATIONS.
    ------------------------------------------------

 NO OUTPUT CONTROL FOR STRESS PERIOD   44   TIME STEP   13
 
 SOLVING FOR HEAD 
                                                   Max.-Head-Change                         Max.-Flux-Residual
  Residual-Control   Outer-Iter.   Inner-Iter.     Column Row Layer    Maximum-Head-Change  Column Row Layer    Maximum-Flux-Residual          L2-NORM 
          0                 1           2             5    8     1       0.5117031129E-01       5    8    1         0.2805072064E+01      0.6292063953E+01
          0                 2           2             5    6     1      -0.9677096097E-01       5    8    1        -0.5331945359E+01      0.1294981889E+02
          0                 3           2             4    7     1       0.2225420195E-01       5    8    1         0.1240193413E+01      0.3028026349E+01
          0                 4           2             4    7     1      -0.8855181447E-03       5    8    1        -0.5071459882E-01      0.1240376473E+00
          0                 5           1             4    7     1       0.1091881863E-04       5    8    1         0.6420637901E-03      0.1606844474E-02

    ------------------------------------------------
       NWT REQUIRED            5 OUTER ITERATIONS 
       AND A TOTAL OF          9 INNER ITERATIONS.
    ------------------------------------------------

 NO OUTPUT CONTROL FOR STRESS PERIOD   44   TIME STEP   14
 
 SOLVING FOR HEAD 
                                                   Max.-Head-Change                         Max.-Flux-Residual
  Residual-Control   Outer-Iter.   Inner-Iter.     Column Row Layer    Maximum-Head-Change  Column Row Layer    Maximum-Flux-Residual          L2-NORM 
          0                 1           2             5    8     1       0.5081558958E-01       5    8    1         0.2783938618E+01      0.6291387855E+01
          0                 2           2             4    7     1      -0.2637535043E+00       5    8    1        -0.1432573173E+02      0.3495144135E+02
          0                 3           2             4    7     1       0.1796028410E-01       5    8    1         0.1002685942E+01      0.2447165071E+01
          0                 4           2             4    7     1      -0.7146581878E-03       5    8    1        -0.4100060324E-01      0.1001350648E+00
          0                 5           1             4    7     1       0.8812042474E-05       5    8    1         0.5189656051E-03      0.1281133527E-02

    ------------------------------------------------
       NWT REQUIRED            5 OUTER ITERATIONS 
       AND A TOTAL OF          9 INNER ITERATIONS.
    ------------------------------------------------

 NO OUTPUT CONTROL FOR STRESS PERIOD   44   TIME STEP   15
 
 SOLVING FOR HEAD 
                                                   Max.-Head-Change                         Max.-Flux-Residual
  Residual-Control   Outer-Iter.   Inner-Iter.     Column Row Layer    Maximum-Head-Change  Column Row Layer    Maximum-Flux-Residual          L2-NORM 
          0                 1           2             5    8     1       0.5583909065E-01       5    8    1         0.3059723065E+01      0.6896513689E+01
          0                 2           2             5    6     1      -0.9721733340E-01       5    8    1        -0.5357409929E+01      0.1300298801E+02
          0                 3           2             4    7     1       0.2227326776E-01       5    8    1         0.1241975947E+01      0.3031665474E+01
          0                 4           2             4    7     1      -0.8862767777E-03       5    8    1        -0.5078810623E-01      0.1241862124E+00
          0                 5           1             4    7     1       0.1092817254E-04       5    8    1         0.6430362423E-03      0.1608525369E-02

    ------------------------------------------------
       NWT REQUIRED            5 OUTER ITERATIONS 
       AND A TOTAL OF          9 INNER ITERATIONS.
    ------------------------------------------------

 NO OUTPUT CONTROL FOR STRESS PERIOD   44   TIME STEP   16
 
 SOLVING FOR HEAD 
                                                   Max.-Head-Change                         Max.-Flux-Residual
  Residual-Control   Outer-Iter.   Inner-Iter.     Column Row Layer    Maximum-Head-Change  Column Row Layer    Maximum-Flux-Residual          L2-NORM 
          0                 1           2             5    8     1       0.5526763080E-01       5    8    1         0.3026557280E+01      0.6872961259E+01
          0                 2           2             4    7     1      -0.2640350338E+00       5    8    1        -0.1434999310E+02      0.3500235111E+02
          0                 3           2             4    7     1       0.1797945717E-01       5    8    1         0.1004392552E+01      0.2450727377E+01
          0                 4           2             4    7     1      -0.7154210916E-03       5    8    1        -0.4107120648E-01      0.1002802010E+00
          0                 5           1             4    7     1       0.8821449368E-05       5    8    1         0.5199149045E-03      0.1282571008E-02

    ------------------------------------------------
       NWT REQUIRED            5 OUTER ITERATIONS 
       AND A TOTAL OF          9 INNER ITERATIONS.
    ------------------------------------------------

 NO OUTPUT CONTROL FOR STRESS PERIOD   44   TIME STEP   17
 
 SOLVING FOR HEAD 
                                                   Max.-Head-Change                         Max.-Flux-Residual
  Residual-Control   Outer-Iter.   Inner-Iter.     Column Row Layer    Maximum-Head-Change  Column Row Layer    Maximum-Flux-Residual          L2-NORM 
          0                 1           2             5    8     1       0.6008790052E-01       5    8    1         0.3291066382E+01      0.7455962177E+01
          0                 2           2             5    6     1      -0.9762599112E-01       5    8    1        -0.5380543735E+01      0.1305302355E+02
          0                 3           2             4    7     1       0.2229255639E-01       5    8    1         0.1243595331E+01      0.3035093903E+01
          0                 4           2             4    7     1      -0.8870442807E-03       5    8    1        -0.5085486377E-01      0.1243262342E+00
          0                 5           1             4    7     1       0.1093763656E-04       5    8    1         0.6439179081E-03      0.1610251709E-02

    ------------------------------------------------
       NWT REQUIRED            5 OUTER ITERATIONS 
       AND A TOTAL OF          9 INNER ITERATIONS.
    ------------------------------------------------

 NO OUTPUT CONTROL FOR STRESS PERIOD   44   TIME STEP   18
 
 SOLVING FOR HEAD 
                                                   Max.-Head-Change                         Max.-Flux-Residual
  Residual-Control   Outer-Iter.   Inner-Iter.     Column Row Layer    Maximum-Head-Change  Column Row Layer    Maximum-Flux-Residual          L2-NORM 
          0                 1           2             5    8     1       0.5932602289E-01       5    8    1         0.3247344888E+01      0.7412195463E+01
          0                 2           2             4    7     1      -0.2643189084E+00       5    8    1        -0.1437207136E+02      0.3505032682E+02
          0                 3           2             4    7     1       0.1799878939E-01       5    8    1         0.1005945298E+01      0.2454084960E+01
          0                 4           2             4    7     1      -0.7161903310E-03       5    8    1        -0.4113541436E-01      0.1004171860E+00
          0                 5           1             4    7     1       0.8830934784E-05       5    8    1         0.5207762131E-03      0.1283976795E-02

    ------------------------------------------------
       NWT REQUIRED            5 OUTER ITERATIONS 
       AND A TOTAL OF          9 INNER ITERATIONS.
    ------------------------------------------------

 NO OUTPUT CONTROL FOR STRESS PERIOD   44   TIME STEP   19
 
 SOLVING FOR HEAD 
                                                   Max.-Head-Change                         Max.-Flux-Residual
  Residual-Control   Outer-Iter.   Inner-Iter.     Column Row Layer    Maximum-Head-Change  Column Row Layer    Maximum-Flux-Residual          L2-NORM 
          0                 1           2             5    8     1       0.6396766980E-01       5    8    1         0.3501958056E+01      0.7975244778E+01
          0                 2           2             5    6     1      -0.9800116862E-01       5    8    1        -0.5401632387E+01      0.1310018470E+02
          0                 3           2             4    7     1       0.2231194599E-01       5    8    1         0.1245071555E+01      0.3038328847E+01
          0                 4           2             4    7     1      -0.8878158042E-03       5    8    1        -0.5091569954E-01      0.1244585448E+00
          0                 5           1             4    7     1       0.1094714931E-04       5    8    1         0.6447200192E-03      0.1611841009E-02

    ------------------------------------------------
       NWT REQUIRED            5 OUTER ITERATIONS 
       AND A TOTAL OF          9 INNER ITERATIONS.
    ------------------------------------------------

 NO OUTPUT CONTROL FOR STRESS PERIOD   44   TIME STEP   20
 
 SOLVING FOR HEAD 
                                                   Max.-Head-Change                         Max.-Flux-Residual
  Residual-Control   Outer-Iter.   Inner-Iter.     Column Row Layer    Maximum-Head-Change  Column Row Layer    Maximum-Flux-Residual          L2-NORM 
          0                 1           2             5    8     1       0.6303818272E-01       5    8    1         0.3448958041E+01      0.7913524857E+01
          0                 2           2             4    7     1      -0.2646034688E+00       5    8    1        -0.1439223219E+02      0.3509560485E+02
          0                 3           2             4    7     1       0.1801816786E-01       5    8    1         0.1007362914E+01      0.2457253918E+01
          0                 4           2             4    7     1      -0.7169614129E-03       5    8    1        -0.4119400676E-01      0.1005465311E+00
          0                 5           1             4    7     1       0.8840442379E-05       5    8    1         0.5215603485E-03      0.1285372879E-02

    ------------------------------------------------
       NWT REQUIRED            5 OUTER ITERATIONS 
       AND A TOTAL OF          9 INNER ITERATIONS.
    ------------------------------------------------

 NO OUTPUT CONTROL FOR STRESS PERIOD   44   TIME STEP   21
 
 SOLVING FOR HEAD 
                                                   Max.-Head-Change                         Max.-Flux-Residual
  Residual-Control   Outer-Iter.   Inner-Iter.     Column Row Layer    Maximum-Head-Change  Column Row Layer    Maximum-Flux-Residual          L2-NORM 
          0                 1           2             5    8     1       0.6752217505E-01       5    8    1         0.3694848841E+01      0.8458439497E+01
          0                 2           2             5    6     1      -0.9834656094E-01       5    8    1        -0.5420920964E+01      0.1314469174E+02
          0                 3           2             4    7     1       0.2233133271E-01       5    8    1         0.1246421776E+01      0.3041385315E+01
          0                 4           2             4    7     1      -0.8885872158E-03       5    8    1        -0.5097132394E-01      0.1245834308E+00
          0                 5           1             4    7     1       0.1095666172E-04       5    8    1         0.6454521354E-03      0.1613256937E-02

    ------------------------------------------------
       NWT REQUIRED            5 OUTER ITERATIONS 
       AND A TOTAL OF          9 INNER ITERATIONS.
    ------------------------------------------------

 NO OUTPUT CONTROL FOR STRESS PERIOD   44   TIME STEP   22
 
 SOLVING FOR HEAD 
                                                   Max.-Head-Change                         Max.-Flux-Residual
  Residual-Control   Outer-Iter.   Inner-Iter.     Column Row Layer    Maximum-Head-Change  Column Row Layer    Maximum-Flux-Residual          L2-NORM 
          0                 1           2             5    8     1       0.6644467372E-01       5    8    1         0.3633666407E+01      0.8380725190E+01
          0                 2           2             4    7     1      -0.2648873227E+00       5    8    1        -0.1441070255E+02      0.3513839834E+02
          0                 3           2             4    7     1       0.1803749783E-01       5    8    1         0.1008661406E+01      0.2460248618E+01
          0                 4           2             4    7     1      -0.7177305676E-03       5    8    1        -0.4124764993E-01      0.1006689317E+00
          0                 5           1             4    7     1       0.8849926339E-05       5    8    1         0.5222765055E-03      0.1286792709E-02

    ------------------------------------------------
       NWT REQUIRED            5 OUTER ITERATIONS 
       AND A TOTAL OF          9 INNER ITERATIONS.
    ------------------------------------------------

 NO OUTPUT CONTROL FOR STRESS PERIOD   44   TIME STEP   23
 
 SOLVING FOR HEAD 
                                                   Max.-Head-Change                         Max.-Flux-Residual
  Residual-Control   Outer-Iter.   Inner-Iter.     Column Row Layer    Maximum-Head-Change  Column Row Layer    Maximum-Flux-Residual          L2-NORM 
          0                 1           2             5    8     1       0.7078930694E-01       5    8    1         0.3871857695E+01      0.8909169064E+01
          0                 2           2             5    6     1      -0.9866540714E-01       5    8    1        -0.5438621363E+01      0.1318675643E+02
          0                 3           2             4    7     1       0.2235063021E-01       5    8    1         0.1247660826E+01      0.3044277506E+01
          0                 4           2             4    7     1      -0.8893550786E-03       5    8    1        -0.5102235111E-01      0.1247017948E+00
          0                 5           1             4    7     1       0.1096612932E-04       5    8    1         0.6461225894E-03      0.1614762774E-02

    ------------------------------------------------
       NWT REQUIRED            5 OUTER ITERATIONS 
       AND A TOTAL OF          9 INNER ITERATIONS.
    ------------------------------------------------

 NO OUTPUT CONTROL FOR STRESS PERIOD   44   TIME STEP   24
 
 SOLVING FOR HEAD 
                                                   Max.-Head-Change                         Max.-Flux-Residual
  Residual-Control   Outer-Iter.   Inner-Iter.     Column Row Layer    Maximum-Head-Change  Column Row Layer    Maximum-Flux-Residual          L2-NORM 
          0                 1           2             5    8     1       0.6958064692E-01       5    8    1         0.3803434711E+01      0.8817175753E+01
          0                 2           2             4    7     1      -0.2651692851E+00       5    8    1        -0.1442767892E+02      0.3517890029E+02
          0                 3           2             4    7     1       0.1805669865E-01       5    8    1         0.1009854629E+01      0.2463082305E+01
          0                 4           2             4    7     1      -0.7184945851E-03       5    8    1        -0.4129692044E-01      0.1007846982E+00
          0                 5           1             4    7     1       0.8859347459E-05       5    8    1         0.5229326900E-03      0.1287974316E-02

    ------------------------------------------------
       NWT REQUIRED            5 OUTER ITERATIONS 
       AND A TOTAL OF          9 INNER ITERATIONS.
    ------------------------------------------------

 NO OUTPUT CONTROL FOR STRESS PERIOD   44   TIME STEP   25
 
 SOLVING FOR HEAD 
                                                   Max.-Head-Change                         Max.-Flux-Residual
  Residual-Control   Outer-Iter.   Inner-Iter.     Column Row Layer    Maximum-Head-Change  Column Row Layer    Maximum-Flux-Residual          L2-NORM 
          0                 1           2             5    8     1       0.7380169832E-01       5    8    1         0.4034807241E+01      0.9330606392E+01
          0                 2           2             5    6     1      -0.9896052645E-01       5    8    1        -0.5454915849E+01      0.1322656515E+02
          0                 3           2             4    7     1       0.2236976193E-01       5    8    1         0.1248801462E+01      0.3047017914E+01
          0                 4           2             4    7     1      -0.8901163478E-03       5    8    1        -0.5106930920E-01      0.1248139696E+00
          0                 5           1             4    7     1       0.1097551662E-04       5    8    1         0.6467385169E-03      0.1616231295E-02

    ------------------------------------------------
       NWT REQUIRED            5 OUTER ITERATIONS 
       AND A TOTAL OF          9 INNER ITERATIONS.
    ------------------------------------------------

 NO OUTPUT CONTROL FOR STRESS PERIOD   44   TIME STEP   26
 
 SOLVING FOR HEAD 
                                                   Max.-Head-Change                         Max.-Flux-Residual
  Residual-Control   Outer-Iter.   Inner-Iter.     Column Row Layer    Maximum-Head-Change  Column Row Layer    Maximum-Flux-Residual          L2-NORM 
          0                 1           2             5    8     1       0.7247669453E-01       5    8    1         0.3959970697E+01      0.9225847953E+01
          0                 2           2             4    7     1      -0.2654483431E+00       5    8    1        -0.1444333207E+02      0.3521728493E+02
          0                 3           2             4    7     1       0.1807570139E-01       5    8    1         0.1010954622E+01      0.2465766321E+01
          0                 4           2             4    7     1      -0.7192507223E-03       5    8    1        -0.4134231910E-01      0.1008942834E+00
          0                 5           1             4    7     1       0.8868670678E-05       5    8    1         0.5235358290E-03      0.1289225741E-02

    ------------------------------------------------
       NWT REQUIRED            5 OUTER ITERATIONS 
       AND A TOTAL OF          9 INNER ITERATIONS.
    ------------------------------------------------

 NO OUTPUT CONTROL FOR STRESS PERIOD   44   TIME STEP   27
 
 SOLVING FOR HEAD 
                                                   Max.-Head-Change                         Max.-Flux-Residual
  Residual-Control   Outer-Iter.   Inner-Iter.     Column Row Layer    Maximum-Head-Change  Column Row Layer    Maximum-Flux-Residual          L2-NORM 
          0                 1           2             5    8     1       0.7658762793E-01       5    8    1         0.4185275895E+01      0.9725517834E+01
          0                 2           2             5    6     1      -0.9923439103E-01       5    8    1        -0.5469962264E+01      0.1326428221E+02
          0                 3           2             4    7     1       0.2235439014E-01       5    8    1         0.1247963597E+01      0.3044973288E+01
          0                 4           2             4    7     1      -0.8895046821E-03       5    8    1        -0.5103533327E-01      0.1247296185E+00
          0                 5           1             4    7     1       0.1096797432E-04       5    8    1         0.6463278498E-03      0.1614969885E-02

    ------------------------------------------------
       NWT REQUIRED            5 OUTER ITERATIONS 
       AND A TOTAL OF          9 INNER ITERATIONS.
    ------------------------------------------------

 NO OUTPUT CONTROL FOR STRESS PERIOD   44   TIME STEP   28
 
 SOLVING FOR HEAD 
                                                   Max.-Head-Change                         Max.-Flux-Residual
  Residual-Control   Outer-Iter.   Inner-Iter.     Column Row Layer    Maximum-Head-Change  Column Row Layer    Maximum-Flux-Residual          L2-NORM 
          0                 1           2             5    8     1       0.7515470709E-01       5    8    1         0.4104801173E+01      0.9567894211E+01
          0                 2           2             4    7     1      -0.3042132369E+00       5    8    1        -0.1652363337E+02      0.4029192701E+02
          0                 3           2             4    7     1       0.2071533003E-01       5    8    1         0.1156545693E+01      0.2821033563E+01
          0                 4           2             4    7     1      -0.8242845740E-03       5    8    1        -0.4729467190E-01      0.1154293606E+00
          0                 5           1             4    7     1       0.1016378285E-04       5    8    1         0.5988103042E-03      0.1473977914E-02

    ------------------------------------------------
       NWT REQUIRED            5 OUTER ITERATIONS 
       AND A TOTAL OF          9 INNER ITERATIONS.
    ------------------------------------------------

 NO OUTPUT CONTROL FOR STRESS PERIOD   44   TIME STEP   29
 
 SOLVING FOR HEAD 
                                                   Max.-Head-Change                         Max.-Flux-Residual
  Residual-Control   Outer-Iter.   Inner-Iter.     Column Row Layer    Maximum-Head-Change  Column Row Layer    Maximum-Flux-Residual          L2-NORM 
          0                 1           2             5    8     1       0.8027905590E-01       5    8    1         0.4386043913E+01      0.1018227014E+02
          0                 2           2             5    6     1      -0.1213972781E+00       5    8    1        -0.6688906138E+01      0.1620695954E+02
          0                 3           2             5    6     1       0.8266648786E-02       5    8    1         0.4682200222E+00      0.1136466887E+01
          0                 4           2             5    6     1      -0.3289379537E-03       5    8    1        -0.1915024234E-01      0.4663040498E-01
          0                 5           1             5    6     1       0.4055939926E-05       5    8    1         0.2426925616E-03      0.6183787282E-03

    ------------------------------------------------
       NWT REQUIRED            5 OUTER ITERATIONS 
       AND A TOTAL OF          9 INNER ITERATIONS.
    ------------------------------------------------

 NO OUTPUT CONTROL FOR STRESS PERIOD   44   TIME STEP   30



 STREAM LISTING     PERIOD     44   STEP       30

 LAYER ROW COL. STREAM  RCH.  FLOW INTO     FLOW TO   FLOW OUT OF   OVRLND.     DIRECT     STREAM       STREAM     STREAM     STREAM   STREAMBED  STREAMBED
                SEG.NO.  NO.  STRM. RCH.    AQUIFER    STRM. RCH.    RUNOFF     PRECIP       ET          HEAD       DEPTH      WIDTH   CONDCTNC.   GRADIENT

   1    1    1     1     1    2.7749E+01  2.5751E-01   2.7492E+01  0.000E+00  0.000E+00  0.000E+00  1.09427E+03  1.218E+00  1.357E+01  6.105E-02  1.406E+00
   1    2    2     1     2    2.7492E+01  3.9832E-01   2.7093E+01  0.000E+00  0.000E+00  0.000E+00  1.08927E+03  1.213E+00  1.351E+01  9.454E-02  1.404E+00
   1    3    3     1     3    2.7093E+01  3.3923E-01   2.6754E+01  0.000E+00  0.000E+00  0.000E+00  1.08363E+03  1.208E+00  1.344E+01  8.062E-02  1.403E+00
   1    3    4     1     4    2.6754E+01  3.1200E-01   2.6442E+01  0.000E+00  0.000E+00  0.000E+00  1.07861E+03  1.203E+00  1.337E+01  7.422E-02  1.401E+00
   1    4    5     2     1    2.4442E+01  3.2655E-01   2.4116E+01  0.000E+00  0.000E+00  0.000E+00  1.07312E+03  1.187E+00  1.200E+01  7.800E-02  1.396E+00
   1    5    6     2     2    2.4116E+01  2.5068E-01   2.3865E+01  0.000E+00  0.000E+00  0.000E+00  1.06769E+03  1.178E+00  1.200E+01  6.000E-02  1.393E+00
   1    6    6     2     3    2.3865E+01  2.5024E-01   2.3615E+01  0.000E+00  0.000E+00  0.000E+00  1.06296E+03  1.171E+00  1.200E+01  6.000E-02  1.390E+00
   1    7    6     2     4    2.3615E+01  2.4979E-01   2.3365E+01  0.000E+00  0.000E+00  0.000E+00  1.05824E+03  1.163E+00  1.200E+01  6.000E-02  1.388E+00
   1    8    6     2     5    2.3365E+01  2.4935E-01   2.3115E+01  0.000E+00  0.000E+00  0.000E+00  1.05351E+03  1.156E+00  1.200E+01  6.000E-02  1.385E+00
   1    3    5     3     1    2.0000E+00  2.8252E-01   1.7175E+00  0.000E+00  0.000E+00  0.000E+00  1.07555E+03  1.909E+00  9.636E+00  7.227E-02  1.955E+00
   1    3    6     3     2    1.7175E+00  2.4905E-01   1.4684E+00  0.000E+00  0.000E+00  0.000E+00  1.07264E+03  1.727E+00  8.909E+00  6.682E-02  1.864E+00
   1    3    7     3     3    1.4684E+00  1.9718E-01   1.2712E+00  0.000E+00  0.000E+00  0.000E+00  1.06987E+03  1.555E+00  8.218E+00  5.547E-02  1.777E+00
   1    4    8     3     4    1.2712E+00  2.2567E-01   1.0456E+00  0.000E+00  0.000E+00  0.000E+00  1.06682E+03  1.364E+00  7.455E+00  6.709E-02  1.682E+00
   1    5    8     3     5    1.0456E+00  1.5790E-01   8.8768E-01  0.000E+00  0.000E+00  0.000E+00  1.06362E+03  1.164E+00  6.655E+00  4.991E-02  1.582E+00
   1    6    8     3     6    8.8768E-01  5.5980E-02   8.3170E-01  0.000E+00  0.000E+00  0.000E+00  1.06158E+03  1.036E+00  6.145E+00  1.844E-02  1.518E+00
   1    5   10     4     1    1.0000E+01  9.0919E-02   9.9091E+00  0.000E+00  0.000E+00  0.000E+00  1.07836E+03  6.368E-01  1.000E+01  2.500E-02  1.212E+00
   1    5    9     4     2    9.9091E+00  1.8158E-01   9.7275E+00  0.000E+00  0.000E+00  0.000E+00  1.07154E+03  6.315E-01  1.000E+01  5.000E-02  1.211E+00
   1    6    8     4     3    9.7275E+00  1.2689E-01   9.6006E+00  0.000E+00  0.000E+00  0.000E+00  1.06381E+03  6.256E-01  1.000E+01  3.500E-02  1.209E+00
   1    6    8     5     1    1.0432E+01  2.2686E-01   1.0205E+01  0.000E+00  0.000E+00  0.000E+00  1.05868E+03  6.790E-01  1.542E+01  6.166E-02  1.226E+00
   1    7    7     5     2    1.0205E+01  2.7894E-01   9.9265E+00  0.000E+00  0.000E+00  0.000E+00  1.05417E+03  6.732E-01  1.519E+01  7.594E-02  1.224E+00
   1    8    7     5     3    9.9265E+00  1.9221E-01   9.7343E+00  0.000E+00  0.000E+00  0.000E+00  1.04992E+03  6.676E-01  1.497E+01  5.241E-02  1.223E+00
   1    8    6     5     4    9.7343E+00  1.3577E-01   9.5985E+00  0.000E+00  0.000E+00  0.000E+00  1.04691E+03  6.637E-01  1.482E+01  3.706E-02  1.221E+00
   1    9    6     6     1    9.5985E+00  2.2097E-01   9.3776E+00  0.000E+00  0.000E+00  0.000E+00  1.04341E+03  6.828E-01  1.200E+01  6.000E-02  1.228E+00
   1   10    7     6     2    9.3776E+00  2.2039E-01   9.1572E+00  0.000E+00  0.000E+00  0.000E+00  1.03885E+03  6.732E-01  1.200E+01  6.000E-02  1.224E+00
   1   11    7     6     3    9.1572E+00  2.1981E-01   8.9374E+00  0.000E+00  0.000E+00  0.000E+00  1.03430E+03  6.636E-01  1.200E+01  6.000E-02  1.221E+00
   1   12    7     6     4    8.9374E+00  2.1923E-01   8.7181E+00  0.000E+00  0.000E+00  0.000E+00  1.02974E+03  6.539E-01  1.200E+01  6.000E-02  1.218E+00
   1   13    7     6     5    8.7181E+00 -8.3807E-02   8.8019E+00  0.000E+00  0.000E+00  0.000E+00  1.02656E+03  6.508E-01  1.200E+01  2.400E-01 -1.164E-01
   1   14    9     7     1    1.5000E+02  1.3544E+00   1.4865E+02  0.000E+00  0.000E+00  0.000E+00  1.03987E+03  2.288E+00  5.529E+01  5.593E-01  8.072E-01
   1   13    8     7     2    1.4865E+02  1.8859E+00   1.4676E+02  0.000E+00  0.000E+00  0.000E+00  1.03478E+03  2.279E+00  5.526E+01  6.148E-01  1.023E+00
   1   13    7     7     3    1.4676E+02  1.5525E+00   1.4521E+02  0.000E+00  0.000E+00  0.000E+00  1.02969E+03  2.270E+00  5.521E+01  5.584E-01  9.267E-01
   1   13    6     8     1    1.5401E+02  9.0342E-01   1.5311E+02  0.000E+00  0.000E+00  0.000E+00  1.02472E+03  2.842E+00  4.120E+01  4.199E-01  7.172E-01
   1   13    5     8     2    1.5311E+02  1.7045E-01   1.5294E+02  0.000E+00  0.000E+00  0.000E+00  1.01846E+03  2.838E+00  4.115E+01  4.193E-01  1.355E-01
   1   13    4     8     3    1.5294E+02 -2.4366E+00   1.5537E+02  0.000E+00  0.000E+00  0.000E+00  1.01222E+03  2.846E+00  4.126E+01  4.205E+00 -1.931E-01
   1   13    3     8     4    1.5537E+02 -3.6561E+00   1.5903E+02  0.000E+00  0.000E+00  0.000E+00  1.00599E+03  2.867E+00  4.157E+01  4.236E+00 -2.877E-01
   1   13    2     8     5    1.5903E+02 -2.6248E+00   1.6165E+02  0.000E+00  0.000E+00  0.000E+00  9.99763E+02  2.888E+00  4.188E+01  4.268E+00 -2.050E-01
   1   13    1     8     6    1.6165E+02 -2.0470E+00   1.6370E+02  0.000E+00  0.000E+00  0.000E+00  9.94779E+02  2.904E+00  4.211E+01  2.574E+00 -2.650E-01
   1    8    6     9     1    2.3115E+01  0.0000E+00   2.3115E+01  0.000E+00  0.000E+00  0.000E+00  1.08250E+03  3.746E+00  4.000E+00  0.000E+00  2.249E+00
   1    8    5     9     2    2.3115E+01  0.0000E+00   2.3115E+01  0.000E+00  0.000E+00  0.000E+00  1.08200E+03  3.746E+00  4.000E+00  0.000E+00  2.249E+00





UNSATURATED ZONE PACKAGE VOLUMETRIC BUDGET FOR  TIME STEP    30 STRESS PERIOD   44
  ------------------------------------------------------------------------------



     CUMULATIVE VOLUMES      L**3       RATES FOR THIS TIME STEP      L**3/T
     ------------------                 ------------------------

           IN:                                      IN:
           ---                                      ---
        INFILTRATION =  1878261478.0430          INFILTRATION =          61.4653

          OUT:                                     OUT:
          ----                                     ----
              UZF ET =  1536960656.3062                UZF ET =          60.8175
        UZF RECHARGE =    81203290.6307          UZF RECHARGE =       0.0000E+00

            IN - OUT =   260097531.1061              IN - OUT =           0.6478

          STORAGE:                                 STORAGE:
          --------                                 --------
      STORAGE CHANGE =   260099172.4692        STORAGE CHANGE =           0.6478

 PERCENT DISCREPANCY IS DIFFERENCE BETWEEN IN-OUT MINUS CHANGE IN STORAGE
 DIVIDED BY THE AVERAGE OF IN AND OUT TIMES 100

 PERCENT DISCREPANCY =          -0.00     PERCENT DISCREPANCY =           0.00






1
  VOLUMETRIC BUDGET FOR AGRICULTURAL FIELDS AT  END OF TIME STEP   30, STRESS PERIOD  44
  ------------------------------------------------------------------------------

     CUMULATIVE VOLUMES      L**3       RATES FOR THIS TIME STEP      L**3/T
     ------------------                 ------------------------

           IN:                                      IN:
           ---                                      ---
               AG WELLS  =   694887296.0000                 AG WELLS  =          37.5019
      DIVERSION SEGMENTS =  1087446144.0000        DIVERSION SEGMENTS =          23.1155
           GW IRRIGATION =           0.0000             GW IRRIGATION =           0.0000
           SW IRRIGATION =           0.0000             SW IRRIGATION =           0.0000
        SYSTEM LOSSES GW =           0.0000          SYSTEM LOSSES GW =           0.0000
        SYSTEM LOSSES SW =           0.0000          SYSTEM LOSSES SW =           0.0000

                TOTAL IN =  1782333440.0000                  TOTAL IN =          60.6173

          OUT:                                     OUT:
          ----                                     ----
               AG WELLS  =           0.0000                 AG WELLS  =           0.0000
      DIVERSION SEGMENTS =           0.0000        DIVERSION SEGMENTS =           0.0000
           GW IRRIGATION =   694887296.0000             GW IRRIGATION =          37.5019
           SW IRRIGATION =  1087467648.0000             SW IRRIGATION =          23.1159
        SYSTEM LOSSES GW =           0.0000          SYSTEM LOSSES GW =           0.0000
        SYSTEM LOSSES SW =           0.0000          SYSTEM LOSSES SW =           0.0000

               TOTAL OUT =  1782354944.0000                 TOTAL OUT =          60.6178

                IN - OUT =      -21504.0000                  IN - OUT =      -4.6158E-04

     PERCENT DISCREPANCY =          -0.00         PERCENT DISCREPANCY =          -0.00



1
  VOLUMETRIC BUDGET FOR ENTIRE MODEL AT END OF TIME STEP   30, STRESS PERIOD  44
  ------------------------------------------------------------------------------

     CUMULATIVE VOLUMES      L**3       RATES FOR THIS TIME STEP      L**3/T
     ------------------                 ------------------------

           IN:                                      IN:
           ---                                      ---
             STORAGE     =  1074790528.0000               STORAGE     =          36.8197
       CONSTANT HEAD     =           0.0000         CONSTANT HEAD     =           0.0000
     HEAD DEP BOUNDS     =    32381798.0000       HEAD DEP BOUNDS     =           0.2870
      STREAM LEAKAGE     =  1368818688.0000        STREAM LEAKAGE     =          11.7822
        UZF RECHARGE     =    81203288.0000          UZF RECHARGE     =           0.0000
               GW ET     =           0.0000                 GW ET     =           0.0000
     SURFACE LEAKAGE     =           0.0000       SURFACE LEAKAGE     =           0.0000
           AG WELLS      =           0.0000             AG WELLS      =           0.0000

                TOTAL IN =  2557194240.0000                  TOTAL IN =          48.8889

          OUT:                                     OUT:
          ----                                     ----
             STORAGE     =   624924416.0000               STORAGE     =           0.2509
       CONSTANT HEAD     =           0.0000         CONSTANT HEAD     =           0.0000
     HEAD DEP BOUNDS     =    32918098.0000       HEAD DEP BOUNDS     =           0.2878
      STREAM LEAKAGE     =  1201528704.0000        STREAM LEAKAGE     =          10.8483
        UZF RECHARGE     =           0.0000          UZF RECHARGE     =           0.0000
               GW ET     =     2951485.0000                 GW ET     =           0.0000
     SURFACE LEAKAGE     =           0.0000       SURFACE LEAKAGE     =           0.0000
           AG WELLS      =   694887296.0000             AG WELLS      =          37.5019

               TOTAL OUT =  2557210112.0000                 TOTAL OUT =          48.8889

                IN - OUT =      -15872.0000                  IN - OUT =       3.0518E-05

     PERCENT DISCREPANCY =          -0.00         PERCENT DISCREPANCY =           0.00






         TIME SUMMARY AT END OF TIME STEP   30 IN STRESS PERIOD   44
                    SECONDS     MINUTES      HOURS       DAYS        YEARS
                    -----------------------------------------------------------
   TIME STEP LENGTH  87667.      1461.1      24.352      1.0147     2.77799E-03
 STRESS PERIOD TIME 2.63000E+06  43833.      730.56      30.440     8.33397E-02
         TOTAL TIME 1.13175E+08 1.88626E+06  31438.      1309.9      3.5863    
1
1
                            STRESS PERIOD NO.   45, LENGTH =   2630000.    
                            -----------------------------------------------

                              NUMBER OF TIME STEPS =    30

                               MULTIPLIER FOR DELT =     1.000

                            INITIAL TIME STEP SIZE =   87666.66    

 REUSING NON-PARAMETER GHB CELLS FROM LAST STRESS PERIOD

      2 GHB CELLS

 REUSING STREAM SEGMENT DATA FROM LAST STRESS PERIOD



            AREAL INFILTRATION RATE
 READING ON UNIT   19 WITH FORMAT: (FREE)              

            1           2           3           4           5           6           7           8           9          10
 ........................................................................................................................
   1   1.0000E-10  2.0000E-10   0.000       0.000       0.000       0.000       0.000       0.000       0.000       0.000    
   2   2.0000E-10  1.0000E-10  2.0000E-10   0.000       0.000      8.0000E-10  8.0000E-10  5.0000E-10   0.000       0.000    
   3    0.000      5.0000E-10  1.0000E-10  1.0000E-10  8.0000E-10  8.0000E-10  5.0000E-10  5.0000E-10   0.000       0.000    
   4   8.0000E-10  5.0000E-10  1.0000E-10  1.0000E-10  1.0000E-10  1.0000E-10  1.0000E-10  1.0000E-10  2.0000E-10   0.000    
   5   8.0000E-10  5.0000E-10  1.0000E-10  1.0000E-10  1.0000E-10  1.0000E-10  1.0000E-10  1.0000E-10  1.0000E-10  1.0000E-10
   6   8.0000E-10  5.0000E-10  5.0000E-10  2.0000E-10  2.0000E-10  1.0000E-10  1.0000E-10  1.0000E-10  1.0000E-10  5.0000E-10
   7   8.0000E-10  5.0000E-10  5.0000E-10  2.0000E-10  2.0000E-10  1.0000E-10  1.0000E-10  2.0000E-10  2.0000E-10   0.000    
   8    0.000      5.0000E-10  5.0000E-10  2.0000E-10  2.0000E-10  1.0000E-10  1.0000E-10  2.0000E-10  5.0000E-10   0.000    
   9    0.000      5.0000E-10  5.0000E-10  2.0000E-10  2.0000E-10  1.0000E-10  1.0000E-10  2.0000E-10  5.0000E-10   0.000    
  10    0.000      5.0000E-10  5.0000E-10  2.0000E-10  2.0000E-10  1.0000E-10  1.0000E-10  2.0000E-10  5.0000E-10  8.0000E-10
  11    0.000      1.0000E-10  1.0000E-10  1.0000E-10  1.0000E-10  1.0000E-10  1.0000E-10  2.0000E-10  5.0000E-10   0.000    
  12   1.0000E-10  1.0000E-10  1.0000E-10  1.0000E-10  1.0000E-10  1.0000E-10  1.0000E-10  1.0000E-10  2.0000E-10   0.000    
  13   1.0000E-10  1.0000E-10  2.0000E-10  2.0000E-10  2.0000E-10  2.0000E-10  2.0000E-10  1.0000E-10  1.0000E-10   0.000    
  14    0.000      2.0000E-10  5.0000E-10  5.0000E-10  5.0000E-10  5.0000E-10  5.0000E-10  2.0000E-10  1.0000E-10   0.000    
  15    0.000       0.000      8.0000E-10  8.0000E-10  8.0000E-10  8.0000E-10   0.000       0.000       0.000       0.000    

                  ET RATE =  3.250000E-07

 USING ET EXTINCTION DEPTH FROM PREVIOUS STRESS PERIOD. CURRENT PERIOD IS:      45

 USING EXTINCTION WATER CONTENT FROM PREVIOUS STRESS PERIOD. CURRENT PERIOD IS:      45

 USING AIR ENTRY PRESSURE FROM PREVIOUS STRESS PERIOD. CURRENT PERIOD IS:      45

 USING ROOT PRESSURE HEAD FROM PREVIOUS STRESS PERIOD. CURRENT PERIOD IS:      45

 USING ROOT ACTIVITY FROM PREVIOUS STRESS PERIOD. CURRENT PERIOD IS:      45

 PROCESSING AG STRESS PERIOD DATA

 READING AG STRESS PERIOD DATA

 READING IRRIGATION SEGMENT

 READING IRRIGATION WELL

 READING SUPPLEMENTAL WELL

 END PROCESSING AG STRESS PERIOD DATA OPTIONS
 
 SOLVING FOR HEAD 
                                                   Max.-Head-Change                         Max.-Flux-Residual
  Residual-Control   Outer-Iter.   Inner-Iter.     Column Row Layer    Maximum-Head-Change  Column Row Layer    Maximum-Flux-Residual          L2-NORM 
          0                 1           2             5    8     1       0.7980565808E-01       5    8    1         0.4358181105E+01      0.1017327458E+02
          0                 2           2             4    7     1      -0.2346575221E+00       5    8    1        -0.1279897155E+02      0.3116431753E+02
          0                 3           2             4    7     1       0.1597904432E-01       5    8    1         0.8958905610E+00      0.2182467631E+01
          0                 4           2             4    7     1      -0.6358223758E-03       5    8    1        -0.3663975481E-01      0.8933784820E-01
          0                 5           1             4    7     1       0.7839963615E-05       5    8    1         0.4641832204E-03      0.1146570924E-02

    ------------------------------------------------
       NWT REQUIRED            5 OUTER ITERATIONS 
       AND A TOTAL OF          9 INNER ITERATIONS.
    ------------------------------------------------

 NO OUTPUT CONTROL FOR STRESS PERIOD   45   TIME STEP    1
 
 SOLVING FOR HEAD 
                                                   Max.-Head-Change                         Max.-Flux-Residual
  Residual-Control   Outer-Iter.   Inner-Iter.     Column Row Layer    Maximum-Head-Change  Column Row Layer    Maximum-Flux-Residual          L2-NORM 
          0                 1           2             5    8     1       0.8269258805E-01       5    8    1         0.4515866960E+01      0.1053801894E+02
          0                 2           2             5    8     1      -0.3964972213E-01       5    8    1        -0.2191966948E+01      0.5208712401E+01
          0                 3           2             4    7     1       0.3259553654E-01       5    8    1         0.1813159073E+01      0.4442573491E+01
          0                 4           2             4    7     1      -0.1292460801E-02       5    8    1        -0.7388699610E-01      0.1902483292E+00
          0                 5           2             4   13     1      -0.1774483394E-03       4   13    1        -0.1102116189E-01      0.1905253495E-01
          0                 6           2             4   13     1      -0.1723701134E-03       4   13    1        -0.1070453147E-01      0.1917618590E-01
          0                 7           2             4    7     1       0.1319656682E-02       5    6    1         0.8123087353E-01      0.1998965259E+00
          0                 8           1             4    7     1       0.8845468262E-04       5    8    1         0.5445698950E-02      0.1334414302E-01

    ------------------------------------------------
       NWT REQUIRED            8 OUTER ITERATIONS 
       AND A TOTAL OF         15 INNER ITERATIONS.
    ------------------------------------------------

 NO OUTPUT CONTROL FOR STRESS PERIOD   45   TIME STEP    2
 
 SOLVING FOR HEAD 
                                                   Max.-Head-Change                         Max.-Flux-Residual
  Residual-Control   Outer-Iter.   Inner-Iter.     Column Row Layer    Maximum-Head-Change  Column Row Layer    Maximum-Flux-Residual          L2-NORM 
          0                 1           2             5    8     1       0.7876139496E-01       5    8    1         0.4297207490E+01      0.1014265528E+02
          0                 2           2             5    7     1      -0.1604386920E+00       5    8    1        -0.8795224203E+01      0.2138585225E+02
          0                 3           2             5    7     1       0.1092516482E-01       5    8    1         0.6156595321E+00      0.1498476793E+01
          0                 4           2             5    7     1      -0.4347230778E-03       5    8    1        -0.2518053975E-01      0.6139903733E-01
          0                 5           1             5    7     1       0.5360329951E-05       5    8    1         0.3191150038E-03      0.7988454628E-03

    ------------------------------------------------
       NWT REQUIRED            5 OUTER ITERATIONS 
       AND A TOTAL OF          9 INNER ITERATIONS.
    ------------------------------------------------

 NO OUTPUT CONTROL FOR STRESS PERIOD   45   TIME STEP    3
 
 SOLVING FOR HEAD 
                                                   Max.-Head-Change                         Max.-Flux-Residual
  Residual-Control   Outer-Iter.   Inner-Iter.     Column Row Layer    Maximum-Head-Change  Column Row Layer    Maximum-Flux-Residual          L2-NORM 
          0                 1           2             5    8     1       0.7960601461E-01       5    8    1         0.4342374106E+01      0.1027294559E+02
          0                 2           2             5    6     1      -0.4882116549E-01       5    8    1        -0.2696109227E+01      0.6470356719E+01
          0                 3           2             4    7     1       0.3201756019E-01       5    8    1         0.1779429215E+01      0.4358593609E+01
          0                 4           2             7   13     1      -0.1345546146E-02       7   13    1        -0.7499162028E-01      0.1945551843E+00
          0                 5           1             7   13     1       0.9159704609E-04       7   13    1         0.5246995399E-02      0.5800170112E-02

    ------------------------------------------------
       NWT REQUIRED            5 OUTER ITERATIONS 
       AND A TOTAL OF          9 INNER ITERATIONS.
    ------------------------------------------------

 NO OUTPUT CONTROL FOR STRESS PERIOD   45   TIME STEP    4
 
 SOLVING FOR HEAD 
                                                   Max.-Head-Change                         Max.-Flux-Residual
  Residual-Control   Outer-Iter.   Inner-Iter.     Column Row Layer    Maximum-Head-Change  Column Row Layer    Maximum-Flux-Residual          L2-NORM 
          0                 1           2             5    8     1       0.7626949729E-01       5    8    1         0.4156810338E+01      0.9939548237E+01
          0                 2           2             4    7     1      -0.1721552340E+00       5    8    1        -0.9404132567E+01      0.2289983099E+02
          0                 3           2             4    7     1       0.1172299598E-01       5    8    1         0.6582819071E+00      0.1604339828E+01
          0                 4           2             4    7     1      -0.4664696306E-03       5    8    1        -0.2692377445E-01      0.6572042710E-01
          0                 5           1             4    7     1       0.5751771843E-05       5    8    1         0.3412053077E-03      0.8520877978E-03

    ------------------------------------------------
       NWT REQUIRED            5 OUTER ITERATIONS 
       AND A TOTAL OF          9 INNER ITERATIONS.
    ------------------------------------------------

 NO OUTPUT CONTROL FOR STRESS PERIOD   45   TIME STEP    5
 
 SOLVING FOR HEAD 
                                                   Max.-Head-Change                         Max.-Flux-Residual
  Residual-Control   Outer-Iter.   Inner-Iter.     Column Row Layer    Maximum-Head-Change  Column Row Layer    Maximum-Flux-Residual          L2-NORM 
          0                 1           2             5    8     1       0.7764374369E-01       5    8    1         0.4231437145E+01      0.1012094958E+02
          0                 2           2             5    6     1      -0.4699782967E-01       5    8    1        -0.2594175743E+01      0.6240166450E+01
          0                 3           2             4    7     1       0.3355972443E-01       5    8    1         0.1863134195E+01      0.4566262208E+01
          0                 4           2             7   13     1      -0.1339721419E-02       5    8    1        -0.7618724235E-01      0.2023788497E+00
          0                 5           1             7   13     1       0.9120018921E-04       7   13    1         0.5224381811E-02      0.5833373871E-02

    ------------------------------------------------
       NWT REQUIRED            5 OUTER ITERATIONS 
       AND A TOTAL OF          9 INNER ITERATIONS.
    ------------------------------------------------

 NO OUTPUT CONTROL FOR STRESS PERIOD   45   TIME STEP    6
 
 SOLVING FOR HEAD 
                                                   Max.-Head-Change                         Max.-Flux-Residual
  Residual-Control   Outer-Iter.   Inner-Iter.     Column Row Layer    Maximum-Head-Change  Column Row Layer    Maximum-Flux-Residual          L2-NORM 
          0                 1           2             5    8     1       0.7436808094E-01       5    8    1         0.4049425215E+01      0.9791497967E+01
          0                 2           2             4    7     1      -0.1688929870E+00       5    8    1        -0.9210298408E+01      0.2244531185E+02
          0                 3           2             4    7     1       0.1150085220E-01       5    8    1         0.6447113565E+00      0.1572535768E+01
          0                 4           2             4    7     1      -0.4576303066E-03       5    8    1        -0.2636849370E-01      0.6442041098E-01
          0                 5           1             4    7     1       0.5642779056E-05       5    8    1         0.3341516915E-03      0.8358072499E-03

    ------------------------------------------------
       NWT REQUIRED            5 OUTER ITERATIONS 
       AND A TOTAL OF          9 INNER ITERATIONS.
    ------------------------------------------------

 NO OUTPUT CONTROL FOR STRESS PERIOD   45   TIME STEP    7
 
 SOLVING FOR HEAD 
                                                   Max.-Head-Change                         Max.-Flux-Residual
  Residual-Control   Outer-Iter.   Inner-Iter.     Column Row Layer    Maximum-Head-Change  Column Row Layer    Maximum-Flux-Residual          L2-NORM 
          0                 1           2             5    8     1       0.7579534745E-01       5    8    1         0.4127156401E+01      0.9972269730E+01
          0                 2           2             5    6     1      -0.4731215485E-01       5    8    1        -0.2610019778E+01      0.6296759575E+01
          0                 3           2             4    7     1       0.3312645572E-01       5    8    1         0.1837971158E+01      0.4505624462E+01
          0                 4           2             7   13     1      -0.1334891643E-02       5    8    1        -0.7515794382E-01      0.1999511425E+00
          0                 5           1             7   13     1       0.9087137101E-04       7   13    1         0.5205521332E-02      0.5800381794E-02

    ------------------------------------------------
       NWT REQUIRED            5 OUTER ITERATIONS 
       AND A TOTAL OF          9 INNER ITERATIONS.
    ------------------------------------------------

 NO OUTPUT CONTROL FOR STRESS PERIOD   45   TIME STEP    8
 
 SOLVING FOR HEAD 
                                                   Max.-Head-Change                         Max.-Flux-Residual
  Residual-Control   Outer-Iter.   Inner-Iter.     Column Row Layer    Maximum-Head-Change  Column Row Layer    Maximum-Flux-Residual          L2-NORM 
          0                 1           2             5    8     1       0.7269398635E-01       5    8    1         0.3954929925E+01      0.9659624703E+01
          0                 2           2             4    7     1      -0.1700259140E+00       5    8    1        -0.9254537176E+01      0.2257064197E+02
          0                 3           2             4    7     1       0.1157799597E-01       5    8    1         0.6478041341E+00      0.1581284458E+01
          0                 4           2             4    7     1      -0.4606999504E-03       5    8    1        -0.2649461160E-01      0.6477637476E-01
          0                 5           1             4    7     1       0.5680629205E-05       5    6    1         0.3357252956E-03      0.8400069348E-03

    ------------------------------------------------
       NWT REQUIRED            5 OUTER ITERATIONS 
       AND A TOTAL OF          9 INNER ITERATIONS.
    ------------------------------------------------

 NO OUTPUT CONTROL FOR STRESS PERIOD   45   TIME STEP    9
 
 SOLVING FOR HEAD 
                                                   Max.-Head-Change                         Max.-Flux-Residual
  Residual-Control   Outer-Iter.   Inner-Iter.     Column Row Layer    Maximum-Head-Change  Column Row Layer    Maximum-Flux-Residual          L2-NORM 
          0                 1           2             5    8     1       0.7428316682E-01       5    8    1         0.4041744606E+01      0.9852319852E+01
          0                 2           2             5    6     1      -0.4703652139E-01       5    8    1        -0.2593739291E+01      0.6271705006E+01
          0                 3           2             4    7     1       0.3326558071E-01       5    8    1         0.1844571078E+01      0.4523006124E+01
          0                 4           2             7   13     1      -0.1330002942E-02       5    8    1        -0.7542740474E-01      0.2005165997E+00
          0                 5           1             7   13     1       0.9053964192E-04       7   13    1         0.5186531352E-02      0.5787912564E-02

    ------------------------------------------------
       NWT REQUIRED            5 OUTER ITERATIONS 
       AND A TOTAL OF          9 INNER ITERATIONS.
    ------------------------------------------------

 NO OUTPUT CONTROL FOR STRESS PERIOD   45   TIME STEP   10
 
 SOLVING FOR HEAD 
                                                   Max.-Head-Change                         Max.-Flux-Residual
  Residual-Control   Outer-Iter.   Inner-Iter.     Column Row Layer    Maximum-Head-Change  Column Row Layer    Maximum-Flux-Residual          L2-NORM 
          0                 1           2             5    6     1       0.7131104073E-01       5    8    1         0.3875886518E+01      0.9550275840E+01
          0                 2           2             4    7     1      -0.1698517710E+00       5    8    1        -0.9230880250E+01      0.2252726804E+02
          0                 3           2             4    7     1       0.1156613569E-01       5    8    1         0.6461453780E+00      0.1578239340E+01
          0                 4           2             4    7     1      -0.4602280273E-03       5    8    1        -0.2642649392E-01      0.6465143375E-01
          0                 5           1             4    7     1       0.5674810034E-05       5    6    1         0.3348905511E-03      0.8383792406E-03

    ------------------------------------------------
       NWT REQUIRED            5 OUTER ITERATIONS 
       AND A TOTAL OF          9 INNER ITERATIONS.
    ------------------------------------------------

 NO OUTPUT CONTROL FOR STRESS PERIOD   45   TIME STEP   11
 
 SOLVING FOR HEAD 
                                                   Max.-Head-Change                         Max.-Flux-Residual
  Residual-Control   Outer-Iter.   Inner-Iter.     Column Row Layer    Maximum-Head-Change  Column Row Layer    Maximum-Flux-Residual          L2-NORM 
          0                 1           2             5    8     1       0.7298781156E-01       5    8    1         0.3968551723E+01      0.9749210388E+01
          0                 2           2             5    6     1      -0.4696109704E-01       5    8    1        -0.2588688045E+01      0.6272112419E+01
          0                 3           2             4    7     1       0.3323511596E-01       5    8    1         0.1841949657E+01      0.4517513064E+01
          0                 4           2             7   13     1      -0.1325349873E-02       5    8    1        -0.7531988207E-01      0.2002139882E+00
          0                 5           1             7   13     1       0.9022105222E-04       7   13    1         0.5168283777E-02      0.5771408774E-02

    ------------------------------------------------
       NWT REQUIRED            5 OUTER ITERATIONS 
       AND A TOTAL OF          9 INNER ITERATIONS.
    ------------------------------------------------

 NO OUTPUT CONTROL FOR STRESS PERIOD   45   TIME STEP   12
 
 SOLVING FOR HEAD 
                                                   Max.-Head-Change                         Max.-Flux-Residual
  Residual-Control   Outer-Iter.   Inner-Iter.     Column Row Layer    Maximum-Head-Change  Column Row Layer    Maximum-Flux-Residual          L2-NORM 
          0                 1           2             5    6     1       0.7020476593E-01       5    8    1         0.3808710044E+01      0.9457482776E+01
          0                 2           2             4    7     1      -0.1700450068E+00       5    8    1        -0.9228783334E+01      0.2253456623E+02
          0                 3           2             4    7     1       0.1157929211E-01       5    8    1         0.6459960204E+00      0.1578733795E+01
          0                 4           2             4    7     1      -0.4607515439E-03       5    6    1        -0.2642049204E-01      0.6467034899E-01
          0                 5           1             4    7     1       0.5681265337E-05       5    6    1         0.3348164737E-03      0.8383040170E-03

    ------------------------------------------------
       NWT REQUIRED            5 OUTER ITERATIONS 
       AND A TOTAL OF          9 INNER ITERATIONS.
    ------------------------------------------------

 NO OUTPUT CONTROL FOR STRESS PERIOD   45   TIME STEP   13
 
 SOLVING FOR HEAD 
                                                   Max.-Head-Change                         Max.-Flux-Residual
  Residual-Control   Outer-Iter.   Inner-Iter.     Column Row Layer    Maximum-Head-Change  Column Row Layer    Maximum-Flux-Residual          L2-NORM 
          0                 1           2             5    6     1       0.7190711395E-01       5    8    1         0.3906913118E+01      0.9662636329E+01
          0                 2           2             5    6     1      -0.4684993340E-01       5    8    1        -0.2581858935E+01      0.6266291392E+01
          0                 3           2             4    7     1       0.3325332381E-01       5    8    1         0.1842137169E+01      0.4518801029E+01
          0                 4           2             4    7     1      -0.1323187014E-02       5    8    1        -0.7532725204E-01      0.2001703500E+00
          0                 5           1             7   13     1       0.8991479603E-04       7   13    1         0.5150748912E-02      0.5756645044E-02

    ------------------------------------------------
       NWT REQUIRED            5 OUTER ITERATIONS 
       AND A TOTAL OF          9 INNER ITERATIONS.
    ------------------------------------------------

 NO OUTPUT CONTROL FOR STRESS PERIOD   45   TIME STEP   14
 
 SOLVING FOR HEAD 
                                                   Max.-Head-Change                         Max.-Flux-Residual
  Residual-Control   Outer-Iter.   Inner-Iter.     Column Row Layer    Maximum-Head-Change  Column Row Layer    Maximum-Flux-Residual          L2-NORM 
          0                 1           2             5    6     1       0.6926362505E-01       5    6    1         0.3752067376E+01      0.9379532724E+01
          0                 2           2             4    7     1      -0.1701162040E+00       5    6    1        -0.9221763896E+01      0.2252802511E+02
          0                 3           2             4    7     1       0.1158413858E-01       5    6    1         0.6455109798E+00      0.1578259134E+01
          0                 4           2             4    7     1      -0.4609443981E-03       5    6    1        -0.2640092730E-01      0.6464961051E-01
          0                 5           1             4    7     1       0.5683643188E-05       5    6    1         0.3345442778E-03      0.8379849746E-03

    ------------------------------------------------
       NWT REQUIRED            5 OUTER ITERATIONS 
       AND A TOTAL OF          9 INNER ITERATIONS.
    ------------------------------------------------

 NO OUTPUT CONTROL FOR STRESS PERIOD   45   TIME STEP   15
 
 SOLVING FOR HEAD 
                                                   Max.-Head-Change                         Max.-Flux-Residual
  Residual-Control   Outer-Iter.   Inner-Iter.     Column Row Layer    Maximum-Head-Change  Column Row Layer    Maximum-Flux-Residual          L2-NORM 
          0                 1           2             5    6     1       0.7103828890E-01       5    8    1         0.3854823051E+01      0.9589554570E+01
          0                 2           2             5    6     1      -0.4676905931E-01       5    8    1        -0.2576845349E+01      0.6263369538E+01
          0                 3           2             4    7     1       0.3325632443E-01       5    8    1         0.1841590837E+01      0.4518164240E+01
          0                 4           2             4    7     1      -0.1323306434E-02       5    6    1        -0.7530518297E-01      0.2000555752E+00
          0                 5           1             7   13     1       0.8961800458E-04       7   13    1         0.5133751984E-02      0.5740637009E-02

    ------------------------------------------------
       NWT REQUIRED            5 OUTER ITERATIONS 
       AND A TOTAL OF          9 INNER ITERATIONS.
    ------------------------------------------------

 NO OUTPUT CONTROL FOR STRESS PERIOD   45   TIME STEP   16
 
 SOLVING FOR HEAD 
                                                   Max.-Head-Change                         Max.-Flux-Residual
  Residual-Control   Outer-Iter.   Inner-Iter.     Column Row Layer    Maximum-Head-Change  Column Row Layer    Maximum-Flux-Residual          L2-NORM 
          0                 1           2             5    6     1       0.6846328491E-01       5    6    1         0.3706922817E+01      0.9314053478E+01
          0                 2           2             4    7     1      -0.1702105549E+00       5    6    1        -0.9217647271E+01      0.2252643769E+02
          0                 3           2             4    7     1       0.1159056187E-01       5    6    1         0.6452195308E+00      0.1578131559E+01
          0                 4           2             4    7     1      -0.4611999948E-03       5    6    1        -0.2638868784E-01      0.6464309278E-01
          0                 5           1             4    7     1       0.5686794725E-05       5    6    1         0.3343674746E-03      0.8377589464E-03

    ------------------------------------------------
       NWT REQUIRED            5 OUTER ITERATIONS 
       AND A TOTAL OF          9 INNER ITERATIONS.
    ------------------------------------------------

 NO OUTPUT CONTROL FOR STRESS PERIOD   45   TIME STEP   17
 
 SOLVING FOR HEAD 
                                                   Max.-Head-Change                         Max.-Flux-Residual
  Residual-Control   Outer-Iter.   Inner-Iter.     Column Row Layer    Maximum-Head-Change  Column Row Layer    Maximum-Flux-Residual          L2-NORM 
          0                 1           2             5    6     1       0.7030154126E-01       5    8    1         0.3810998210E+01      0.9528227424E+01
          0                 2           2             5    6     1      -0.4669644029E-01       5    8    1        -0.2572405782E+01      0.6260528203E+01
          0                 3           2             4    7     1       0.3326297723E-01       5    8    1         0.1841337588E+01      0.4518148719E+01
          0                 4           2             4    7     1      -0.1323571176E-02       5    6    1        -0.7529525586E-01      0.1999684733E+00
          0                 5           1             7   13     1       0.8933996038E-04       7   13    1         0.5117828227E-02      0.5726451945E-02

    ------------------------------------------------
       NWT REQUIRED            5 OUTER ITERATIONS 
       AND A TOTAL OF          9 INNER ITERATIONS.
    ------------------------------------------------

 NO OUTPUT CONTROL FOR STRESS PERIOD   45   TIME STEP   18
 
 SOLVING FOR HEAD 
                                                   Max.-Head-Change                         Max.-Flux-Residual
  Residual-Control   Outer-Iter.   Inner-Iter.     Column Row Layer    Maximum-Head-Change  Column Row Layer    Maximum-Flux-Residual          L2-NORM 
          0                 1           2             5    6     1       0.6778542391E-01       5    6    1         0.3668619196E+01      0.9259338534E+01
          0                 2           2             4    7     1      -0.1702869232E+00       5    6    1        -0.9213699740E+01      0.2252417683E+02
          0                 3           2             4    7     1       0.1159576080E-01       5    6    1         0.6449402830E+00      0.1577957984E+01
          0                 4           2             4    7     1      -0.4614068718E-03       5    6    1        -0.2637698288E-01      0.6463474117E-01
          0                 5           1             4    7     1       0.5689345751E-05       5    6    1         0.3341998683E-03      0.8374961133E-03

    ------------------------------------------------
       NWT REQUIRED            5 OUTER ITERATIONS 
       AND A TOTAL OF          9 INNER ITERATIONS.
    ------------------------------------------------

 NO OUTPUT CONTROL FOR STRESS PERIOD   45   TIME STEP   19
 
 SOLVING FOR HEAD 
                                                   Max.-Head-Change                         Max.-Flux-Residual
  Residual-Control   Outer-Iter.   Inner-Iter.     Column Row Layer    Maximum-Head-Change  Column Row Layer    Maximum-Flux-Residual          L2-NORM 
          0                 1           2             5    6     1       0.6967839540E-01       5    8    1         0.3774242046E+01      0.9476943533E+01
          0                 2           2             5    7     1      -0.4669129757E-01       5    8    1        -0.2568747455E+01      0.6258471565E+01
          0                 3           2             4    7     1       0.3326783039E-01       5    8    1         0.1841064340E+01      0.4518000175E+01
          0                 4           2             4    7     1      -0.1323764307E-02       5    6    1        -0.7528432631E-01      0.1998789936E+00
          0                 5           1             7   13     1       0.8905305708E-04       7   13    1         0.5101396028E-02      0.5711691012E-02

    ------------------------------------------------
       NWT REQUIRED            5 OUTER ITERATIONS 
       AND A TOTAL OF          9 INNER ITERATIONS.
    ------------------------------------------------

 NO OUTPUT CONTROL FOR STRESS PERIOD   45   TIME STEP   20
 
 SOLVING FOR HEAD 
                                                   Max.-Head-Change                         Max.-Flux-Residual
  Residual-Control   Outer-Iter.   Inner-Iter.     Column Row Layer    Maximum-Head-Change  Column Row Layer    Maximum-Flux-Residual          L2-NORM 
          0                 1           2             5    6     1       0.6721362099E-01       5    6    1         0.3636234926E+01      0.9213862882E+01
          0                 2           2             4    7     1      -0.1703587386E+00       5    6    1        -0.9210497674E+01      0.2252280278E+02
          0                 3           2             4    7     1       0.1160064987E-01       5    6    1         0.6447135217E+00      0.1577847461E+01
          0                 4           2             4    7     1      -0.4616014186E-03       5    6    1        -0.2636745434E-01      0.6462914678E-01
          0                 5           1             4    7     1       0.5691744549E-05       5    6    1         0.3340618605E-03      0.8371590975E-03

    ------------------------------------------------
       NWT REQUIRED            5 OUTER ITERATIONS 
       AND A TOTAL OF          9 INNER ITERATIONS.
    ------------------------------------------------

 NO OUTPUT CONTROL FOR STRESS PERIOD   45   TIME STEP   21
 
 SOLVING FOR HEAD 
                                                   Max.-Head-Change                         Max.-Flux-Residual
  Residual-Control   Outer-Iter.   Inner-Iter.     Column Row Layer    Maximum-Head-Change  Column Row Layer    Maximum-Flux-Residual          L2-NORM 
          0                 1           2             5    6     1       0.6915402340E-01       5    8    1         0.3743552681E+01      0.9434345689E+01
          0                 2           2             5    7     1      -0.4669262298E-01       5    8    1        -0.2565673146E+01      0.6256886230E+01
          0                 3           2             4    7     1       0.3327258525E-01       5    8    1         0.1840854444E+01      0.4517934821E+01
          0                 4           2             4    7     1      -0.1323953524E-02       5    6    1        -0.7527584825E-01      0.1997952440E+00
          0                 5           1             7   13     1       0.8878227888E-04       7   13    1         0.5085891945E-02      0.5697955737E-02

    ------------------------------------------------
       NWT REQUIRED            5 OUTER ITERATIONS 
       AND A TOTAL OF          9 INNER ITERATIONS.
    ------------------------------------------------

 NO OUTPUT CONTROL FOR STRESS PERIOD   45   TIME STEP   22
 
 SOLVING FOR HEAD 
                                                   Max.-Head-Change                         Max.-Flux-Residual
  Residual-Control   Outer-Iter.   Inner-Iter.     Column Row Layer    Maximum-Head-Change  Column Row Layer    Maximum-Flux-Residual          L2-NORM 
          0                 1           2             5    6     1       0.6673373597E-01       5    6    1         0.3608978852E+01      0.9176368751E+01
          0                 2           2             4    7     1      -0.1704231474E+00       5    6    1        -0.9207760732E+01      0.2252176020E+02
          0                 3           2             4    7     1       0.1160503471E-01       5    6    1         0.6445195869E+00      0.1577760232E+01
          0                 4           2             4    7     1      -0.4617759015E-03       5    6    1        -0.2635929454E-01      0.6462446570E-01
          0                 5           1             4    7     1       0.5693895906E-05       5    6    1         0.3339429734E-03      0.8370478561E-03

    ------------------------------------------------
       NWT REQUIRED            5 OUTER ITERATIONS 
       AND A TOTAL OF          9 INNER ITERATIONS.
    ------------------------------------------------

 NO OUTPUT CONTROL FOR STRESS PERIOD   45   TIME STEP   23
 
 SOLVING FOR HEAD 
                                                   Max.-Head-Change                         Max.-Flux-Residual
  Residual-Control   Outer-Iter.   Inner-Iter.     Column Row Layer    Maximum-Head-Change  Column Row Layer    Maximum-Flux-Residual          L2-NORM 
          0                 1           2             5    6     1       0.6871537588E-01       5    8    1         0.3718074544E+01      0.9399246928E+01
          0                 2           2             5    7     1      -0.4669513605E-01       5    8    1        -0.2563127103E+01      0.6255777497E+01
          0                 3           2             4    7     1       0.3327680041E-01       5    8    1         0.1840674433E+01      0.4517881853E+01
          0                 4           2             4    7     1      -0.1324121264E-02       5    6    1        -0.7526848618E-01      0.1997147419E+00
          0                 5           1             7   13     1       0.8852028142E-04       7   13    1         0.5070890089E-02      0.5684426648E-02

    ------------------------------------------------
       NWT REQUIRED            5 OUTER ITERATIONS 
       AND A TOTAL OF          9 INNER ITERATIONS.
    ------------------------------------------------

 NO OUTPUT CONTROL FOR STRESS PERIOD   45   TIME STEP   24
 
 SOLVING FOR HEAD 
                                                   Max.-Head-Change                         Max.-Flux-Residual
  Residual-Control   Outer-Iter.   Inner-Iter.     Column Row Layer    Maximum-Head-Change  Column Row Layer    Maximum-Flux-Residual          L2-NORM 
          0                 1           2             5    6     1       0.6633386783E-01       5    6    1         0.3586184393E+01      0.9145765277E+01
          0                 2           2             4    7     1      -0.1704820746E+00       5    6    1        -0.9205485201E+01      0.2252114624E+02
          0                 3           2             4    7     1       0.1160904640E-01       5    6    1         0.6443581815E+00      0.1577703340E+01
          0                 4           2             4    7     1      -0.4619355349E-03       5    6    1        -0.2635248768E-01      0.6462102299E-01
          0                 5           1             4    7     1       0.5695864231E-05       5    6    1         0.3338427712E-03      0.8368610788E-03

    ------------------------------------------------
       NWT REQUIRED            5 OUTER ITERATIONS 
       AND A TOTAL OF          9 INNER ITERATIONS.
    ------------------------------------------------

 NO OUTPUT CONTROL FOR STRESS PERIOD   45   TIME STEP   25
 
 SOLVING FOR HEAD 
                                                   Max.-Head-Change                         Max.-Flux-Residual
  Residual-Control   Outer-Iter.   Inner-Iter.     Column Row Layer    Maximum-Head-Change  Column Row Layer    Maximum-Flux-Residual          L2-NORM 
          0                 1           2             5    6     1       0.6835129919E-01       5    8    1         0.3697092583E+01      0.9370651754E+01
          0                 2           2             5    7     1      -0.4669867097E-01       5    8    1        -0.2561028523E+01      0.6255064081E+01
          0                 3           2             4    7     1       0.3328068931E-01       5    8    1         0.1840528307E+01      0.4517859693E+01
          0                 4           2             4    7     1      -0.1324276021E-02       5    6    1        -0.7526242772E-01      0.1996378314E+00
          0                 5           1             7   13     1       0.8826570475E-04       7   13    1         0.5056311516E-02      0.5671763979E-02

    ------------------------------------------------
       NWT REQUIRED            5 OUTER ITERATIONS 
       AND A TOTAL OF          9 INNER ITERATIONS.
    ------------------------------------------------

 NO OUTPUT CONTROL FOR STRESS PERIOD   45   TIME STEP   26
 
 SOLVING FOR HEAD 
                                                   Max.-Head-Change                         Max.-Flux-Residual
  Residual-Control   Outer-Iter.   Inner-Iter.     Column Row Layer    Maximum-Head-Change  Column Row Layer    Maximum-Flux-Residual          L2-NORM 
          0                 1           2             5    6     1       0.6600351264E-01       5    6    1         0.3567264451E+01      0.9121143738E+01
          0                 2           2             4    7     1      -0.1705358435E+00       5    6    1        -0.9203591391E+01      0.2252086157E+02
          0                 3           2             4    7     1       0.1161270694E-01       5    6    1         0.6442236978E+00      0.1577669338E+01
          0                 4           2             4    7     1      -0.4620811962E-03       5    6    1        -0.2634680154E-01      0.6461853831E-01
          0                 5           1             4    7     1       0.5697660052E-05       5    6    1         0.3337580949E-03      0.8367475729E-03

    ------------------------------------------------
       NWT REQUIRED            5 OUTER ITERATIONS 
       AND A TOTAL OF          9 INNER ITERATIONS.
    ------------------------------------------------

 NO OUTPUT CONTROL FOR STRESS PERIOD   45   TIME STEP   27
 
 SOLVING FOR HEAD 
                                                   Max.-Head-Change                         Max.-Flux-Residual
  Residual-Control   Outer-Iter.   Inner-Iter.     Column Row Layer    Maximum-Head-Change  Column Row Layer    Maximum-Flux-Residual          L2-NORM 
          0                 1           2             5    6     1       0.6805204508E-01       5    8    1         0.3679982172E+01      0.9347700317E+01
          0                 2           2             5    7     1      -0.4670328186E-01       5    8    1        -0.2559317807E+01      0.6254701918E+01
          0                 3           2             4    7     1       0.3328423257E-01       5    8    1         0.1840408139E+01      0.4517856419E+01
          0                 4           2             4    7     1      -0.1324417023E-02       5    6    1        -0.7525736947E-01      0.1995640456E+00
          0                 5           1             7   13     1       0.8802679709E-04       7   13    1         0.5042629866E-02      0.5659119055E-02

    ------------------------------------------------
       NWT REQUIRED            5 OUTER ITERATIONS 
       AND A TOTAL OF          9 INNER ITERATIONS.
    ------------------------------------------------

 NO OUTPUT CONTROL FOR STRESS PERIOD   45   TIME STEP   28
 
 SOLVING FOR HEAD 
                                                   Max.-Head-Change                         Max.-Flux-Residual
  Residual-Control   Outer-Iter.   Inner-Iter.     Column Row Layer    Maximum-Head-Change  Column Row Layer    Maximum-Flux-Residual          L2-NORM 
          0                 1           2             5    6     1       0.6573347502E-01       5    6    1         0.3551705580E+01      0.9101694389E+01
          0                 2           2             4    7     1      -0.1705852000E+00       5    6    1        -0.9202035588E+01      0.2252088035E+02
          0                 3           2             4    7     1       0.1161606712E-01       5    6    1         0.6441130501E+00      0.1577656964E+01
          0                 4           2             4    7     1      -0.4622149043E-03       5    6    1        -0.2634210741E-01      0.6461691184E-01
          0                 5           1             4    7     1       0.5699309023E-05       5    6    1         0.3336871480E-03      0.8365477488E-03

    ------------------------------------------------
       NWT REQUIRED            5 OUTER ITERATIONS 
       AND A TOTAL OF          9 INNER ITERATIONS.
    ------------------------------------------------

 NO OUTPUT CONTROL FOR STRESS PERIOD   45   TIME STEP   29
 
 SOLVING FOR HEAD 
                                                   Max.-Head-Change                         Max.-Flux-Residual
  Residual-Control   Outer-Iter.   Inner-Iter.     Column Row Layer    Maximum-Head-Change  Column Row Layer    Maximum-Flux-Residual          L2-NORM 
          0                 1           2             5    6     1       0.6780907624E-01       5    8    1         0.3666203200E+01      0.9329646211E+01
          0                 2           2             5    7     1      -0.4670892802E-01       5    8    1        -0.2557939989E+01      0.6254643177E+01
          0                 3           2             4    7     1       0.3328749783E-01       5    8    1         0.1840311691E+01      0.4517873222E+01
          0                 4           2             4    7     1      -0.1324546961E-02       5    6    1        -0.7525323642E-01      0.1994930463E+00
          0                 5           1             7   13     1       0.8779094494E-04       7   13    1         0.5029125093E-02      0.5647201164E-02

    ------------------------------------------------
       NWT REQUIRED            5 OUTER ITERATIONS 
       AND A TOTAL OF          9 INNER ITERATIONS.
    ------------------------------------------------

 NO OUTPUT CONTROL FOR STRESS PERIOD   45   TIME STEP   30



 STREAM LISTING     PERIOD     45   STEP       30

 LAYER ROW COL. STREAM  RCH.  FLOW INTO     FLOW TO   FLOW OUT OF   OVRLND.     DIRECT     STREAM       STREAM     STREAM     STREAM   STREAMBED  STREAMBED
                SEG.NO.  NO.  STRM. RCH.    AQUIFER    STRM. RCH.    RUNOFF     PRECIP       ET          HEAD       DEPTH      WIDTH   CONDCTNC.   GRADIENT

   1    1    1     1     1    2.7749E+01  2.5751E-01   2.7492E+01  0.000E+00  0.000E+00  0.000E+00  1.09427E+03  1.218E+00  1.357E+01  6.105E-02  1.406E+00
   1    2    2     1     2    2.7492E+01  3.9832E-01   2.7093E+01  0.000E+00  0.000E+00  0.000E+00  1.08927E+03  1.213E+00  1.351E+01  9.454E-02  1.404E+00
   1    3    3     1     3    2.7093E+01  3.3923E-01   2.6754E+01  0.000E+00  0.000E+00  0.000E+00  1.08363E+03  1.208E+00  1.344E+01  8.062E-02  1.403E+00
   1    3    4     1     4    2.6754E+01  3.1200E-01   2.6442E+01  0.000E+00  0.000E+00  0.000E+00  1.07861E+03  1.203E+00  1.337E+01  7.422E-02  1.401E+00
   1    4    5     2     1    2.4442E+01  3.2655E-01   2.4116E+01  0.000E+00  0.000E+00  0.000E+00  1.07312E+03  1.187E+00  1.200E+01  7.800E-02  1.396E+00
   1    5    6     2     2    2.4116E+01  2.5068E-01   2.3865E+01  0.000E+00  0.000E+00  0.000E+00  1.06769E+03  1.178E+00  1.200E+01  6.000E-02  1.393E+00
   1    6    6     2     3    2.3865E+01  2.5024E-01   2.3615E+01  0.000E+00  0.000E+00  0.000E+00  1.06296E+03  1.171E+00  1.200E+01  6.000E-02  1.390E+00
   1    7    6     2     4    2.3615E+01  2.4979E-01   2.3365E+01  0.000E+00  0.000E+00  0.000E+00  1.05824E+03  1.163E+00  1.200E+01  6.000E-02  1.388E+00
   1    8    6     2     5    2.3365E+01  2.4935E-01   2.3115E+01  0.000E+00  0.000E+00  0.000E+00  1.05351E+03  1.156E+00  1.200E+01  6.000E-02  1.385E+00
   1    3    5     3     1    2.0000E+00  2.8252E-01   1.7175E+00  0.000E+00  0.000E+00  0.000E+00  1.07555E+03  1.909E+00  9.636E+00  7.227E-02  1.955E+00
   1    3    6     3     2    1.7175E+00  2.4905E-01   1.4684E+00  0.000E+00  0.000E+00  0.000E+00  1.07264E+03  1.727E+00  8.909E+00  6.682E-02  1.864E+00
   1    3    7     3     3    1.4684E+00  1.9718E-01   1.2712E+00  0.000E+00  0.000E+00  0.000E+00  1.06987E+03  1.555E+00  8.218E+00  5.547E-02  1.777E+00
   1    4    8     3     4    1.2712E+00  2.2567E-01   1.0456E+00  0.000E+00  0.000E+00  0.000E+00  1.06682E+03  1.364E+00  7.455E+00  6.709E-02  1.682E+00
   1    5    8     3     5    1.0456E+00  1.5790E-01   8.8768E-01  0.000E+00  0.000E+00  0.000E+00  1.06362E+03  1.164E+00  6.655E+00  4.991E-02  1.582E+00
   1    6    8     3     6    8.8768E-01  5.5980E-02   8.3170E-01  0.000E+00  0.000E+00  0.000E+00  1.06158E+03  1.036E+00  6.145E+00  1.844E-02  1.518E+00
   1    5   10     4     1    1.0000E+01  9.0919E-02   9.9091E+00  0.000E+00  0.000E+00  0.000E+00  1.07836E+03  6.368E-01  1.000E+01  2.500E-02  1.212E+00
   1    5    9     4     2    9.9091E+00  1.8158E-01   9.7275E+00  0.000E+00  0.000E+00  0.000E+00  1.07154E+03  6.315E-01  1.000E+01  5.000E-02  1.211E+00
   1    6    8     4     3    9.7275E+00  1.2689E-01   9.6006E+00  0.000E+00  0.000E+00  0.000E+00  1.06381E+03  6.256E-01  1.000E+01  3.500E-02  1.209E+00
   1    6    8     5     1    1.0432E+01  2.2686E-01   1.0205E+01  0.000E+00  0.000E+00  0.000E+00  1.05868E+03  6.790E-01  1.542E+01  6.166E-02  1.226E+00
   1    7    7     5     2    1.0205E+01  2.7894E-01   9.9265E+00  0.000E+00  0.000E+00  0.000E+00  1.05417E+03  6.732E-01  1.519E+01  7.594E-02  1.224E+00
   1    8    7     5     3    9.9265E+00  1.9221E-01   9.7343E+00  0.000E+00  0.000E+00  0.000E+00  1.04992E+03  6.676E-01  1.497E+01  5.241E-02  1.223E+00
   1    8    6     5     4    9.7343E+00  1.3577E-01   9.5985E+00  0.000E+00  0.000E+00  0.000E+00  1.04691E+03  6.637E-01  1.482E+01  3.706E-02  1.221E+00
   1    9    6     6     1    9.5985E+00  2.2097E-01   9.3776E+00  0.000E+00  0.000E+00  0.000E+00  1.04341E+03  6.828E-01  1.200E+01  6.000E-02  1.228E+00
   1   10    7     6     2    9.3776E+00  2.2039E-01   9.1572E+00  0.000E+00  0.000E+00  0.000E+00  1.03885E+03  6.732E-01  1.200E+01  6.000E-02  1.224E+00
   1   11    7     6     3    9.1572E+00  2.1981E-01   8.9374E+00  0.000E+00  0.000E+00  0.000E+00  1.03430E+03  6.636E-01  1.200E+01  6.000E-02  1.221E+00
   1   12    7     6     4    8.9374E+00  2.1923E-01   8.7181E+00  0.000E+00  0.000E+00  0.000E+00  1.02974E+03  6.539E-01  1.200E+01  6.000E-02  1.218E+00
   1   13    7     6     5    8.7181E+00 -7.9681E-02   8.7978E+00  0.000E+00  0.000E+00  0.000E+00  1.02656E+03  6.507E-01  1.200E+01  2.400E-01 -1.107E-01
   1   14    9     7     1    1.5000E+02  1.3550E+00   1.4865E+02  0.000E+00  0.000E+00  0.000E+00  1.03987E+03  2.288E+00  5.529E+01  5.593E-01  8.076E-01
   1   13    8     7     2    1.4865E+02  1.8898E+00   1.4676E+02  0.000E+00  0.000E+00  0.000E+00  1.03478E+03  2.279E+00  5.526E+01  6.148E-01  1.025E+00
   1   13    7     7     3    1.4676E+02  1.5621E+00   1.4519E+02  0.000E+00  0.000E+00  0.000E+00  1.02969E+03  2.270E+00  5.521E+01  5.584E-01  9.324E-01
   1   13    6     8     1    1.5399E+02  9.1424E-01   1.5308E+02  0.000E+00  0.000E+00  0.000E+00  1.02472E+03  2.842E+00  4.120E+01  4.199E-01  7.258E-01
   1   13    5     8     2    1.5308E+02  1.8125E-01   1.5290E+02  0.000E+00  0.000E+00  0.000E+00  1.01846E+03  2.838E+00  4.115E+01  4.193E-01  1.441E-01
   1   13    4     8     3    1.5290E+02 -2.3905E+00   1.5529E+02  0.000E+00  0.000E+00  0.000E+00  1.01222E+03  2.845E+00  4.126E+01  4.204E+00 -1.895E-01
   1   13    3     8     4    1.5529E+02 -3.6145E+00   1.5890E+02  0.000E+00  0.000E+00  0.000E+00  1.00599E+03  2.866E+00  4.156E+01  4.235E+00 -2.845E-01
   1   13    2     8     5    1.5890E+02 -2.5772E+00   1.6148E+02  0.000E+00  0.000E+00  0.000E+00  9.99762E+02  2.887E+00  4.186E+01  4.266E+00 -2.014E-01
   1   13    1     8     6    1.6148E+02 -1.9937E+00   1.6347E+02  0.000E+00  0.000E+00  0.000E+00  9.94778E+02  2.903E+00  4.209E+01  2.573E+00 -2.583E-01
   1    8    6     9     1    2.3115E+01  0.0000E+00   2.3115E+01  0.000E+00  0.000E+00  0.000E+00  1.08250E+03  3.746E+00  4.000E+00  0.000E+00  2.249E+00
   1    8    5     9     2    2.3115E+01  0.0000E+00   2.3115E+01  0.000E+00  0.000E+00  0.000E+00  1.08200E+03  3.746E+00  4.000E+00  0.000E+00  2.249E+00





UNSATURATED ZONE PACKAGE VOLUMETRIC BUDGET FOR  TIME STEP    30 STRESS PERIOD   45
  ------------------------------------------------------------------------------



     CUMULATIVE VOLUMES      L**3       RATES FOR THIS TIME STEP      L**3/T
     ------------------                 ------------------------

           IN:                                      IN:
           ---                                      ---
        INFILTRATION =  2016676722.7319          INFILTRATION =          27.1439

          OUT:                                     OUT:
          ----                                     ----
              UZF ET =  1667411085.6826                UZF ET =          49.6308
        UZF RECHARGE =    81203290.6307          UZF RECHARGE =       0.0000E+00

            IN - OUT =   268062346.4186              IN - OUT =         -22.4869

          STORAGE:                                 STORAGE:
          --------                                 --------
      STORAGE CHANGE =   268063985.4626        STORAGE CHANGE =         -22.4869

 PERCENT DISCREPANCY IS DIFFERENCE BETWEEN IN-OUT MINUS CHANGE IN STORAGE
 DIVIDED BY THE AVERAGE OF IN AND OUT TIMES 100

 PERCENT DISCREPANCY =          -0.00     PERCENT DISCREPANCY =           0.00






1
  VOLUMETRIC BUDGET FOR AGRICULTURAL FIELDS AT  END OF TIME STEP   30, STRESS PERIOD  45
  ------------------------------------------------------------------------------

     CUMULATIVE VOLUMES      L**3       RATES FOR THIS TIME STEP      L**3/T
     ------------------                 ------------------------

           IN:                                      IN:
           ---                                      ---
               AG WELLS  =   770304128.0000                 AG WELLS  =           3.1804
      DIVERSION SEGMENTS =  1148215424.0000        DIVERSION SEGMENTS =          23.1155
           GW IRRIGATION =           0.0000             GW IRRIGATION =           0.0000
           SW IRRIGATION =           0.0000             SW IRRIGATION =           0.0000
        SYSTEM LOSSES GW =           0.0000          SYSTEM LOSSES GW =           0.0000
        SYSTEM LOSSES SW =           0.0000          SYSTEM LOSSES SW =           0.0000

                TOTAL IN =  1918519552.0000                  TOTAL IN =          26.2959

          OUT:                                     OUT:
          ----                                     ----
               AG WELLS  =           0.0000                 AG WELLS  =           0.0000
      DIVERSION SEGMENTS =           0.0000        DIVERSION SEGMENTS =           0.0000
           GW IRRIGATION =   770304128.0000             GW IRRIGATION =           3.1804
           SW IRRIGATION =  1148236928.0000             SW IRRIGATION =          23.1159
        SYSTEM LOSSES GW =           0.0000          SYSTEM LOSSES GW =           0.0000
        SYSTEM LOSSES SW =           0.0000          SYSTEM LOSSES SW =           0.0000

               TOTAL OUT =  1918541056.0000                 TOTAL OUT =          26.2964

                IN - OUT =      -21504.0000                  IN - OUT =      -4.6158E-04

     PERCENT DISCREPANCY =          -0.00         PERCENT DISCREPANCY =          -0.00



1
  VOLUMETRIC BUDGET FOR ENTIRE MODEL AT END OF TIME STEP   30, STRESS PERIOD  45
  ------------------------------------------------------------------------------

     CUMULATIVE VOLUMES      L**3       RATES FOR THIS TIME STEP      L**3/T
     ------------------                 ------------------------

           IN:                                      IN:
           ---                                      ---
             STORAGE     =  1170820608.0000               STORAGE     =          19.2221
       CONSTANT HEAD     =           0.0000         CONSTANT HEAD     =           0.0000
     HEAD DEP BOUNDS     =    33136728.0000       HEAD DEP BOUNDS     =           0.2871
      STREAM LEAKAGE     =  1399858304.0000        STREAM LEAKAGE     =          11.8179
        UZF RECHARGE     =    81203288.0000          UZF RECHARGE     =           0.0000
               GW ET     =           0.0000                 GW ET     =           0.0000
     SURFACE LEAKAGE     =           0.0000       SURFACE LEAKAGE     =           0.0000
           AG WELLS      =           0.0000             AG WELLS      =           0.0000

                TOTAL IN =  2685018880.0000                  TOTAL IN =          31.3271

          OUT:                                     OUT:
          ----                                     ----
             STORAGE     =   648369152.0000               STORAGE     =          17.2043
       CONSTANT HEAD     =           0.0000         CONSTANT HEAD     =           0.0000
     HEAD DEP BOUNDS     =    33673688.0000       HEAD DEP BOUNDS     =           0.2870
      STREAM LEAKAGE     =  1229735808.0000        STREAM LEAKAGE     =          10.6555
        UZF RECHARGE     =           0.0000          UZF RECHARGE     =           0.0000
               GW ET     =     2951485.0000                 GW ET     =           0.0000
     SURFACE LEAKAGE     =           0.0000       SURFACE LEAKAGE     =           0.0000
           AG WELLS      =   770304128.0000             AG WELLS      =           3.1804

               TOTAL OUT =  2685033984.0000                 TOTAL OUT =          31.3272

                IN - OUT =      -15104.0000                  IN - OUT =      -8.3923E-05

     PERCENT DISCREPANCY =          -0.00         PERCENT DISCREPANCY =          -0.00






         TIME SUMMARY AT END OF TIME STEP   30 IN STRESS PERIOD   45
                    SECONDS     MINUTES      HOURS       DAYS        YEARS
                    -----------------------------------------------------------
   TIME STEP LENGTH  87667.      1461.1      24.352      1.0147     2.77799E-03
 STRESS PERIOD TIME 2.63000E+06  43833.      730.56      30.440     8.33397E-02
         TOTAL TIME 1.15805E+08 1.93009E+06  32168.      1340.3      3.6696    
1
1
                            STRESS PERIOD NO.   46, LENGTH =   2630000.    
                            -----------------------------------------------

                              NUMBER OF TIME STEPS =    30

                               MULTIPLIER FOR DELT =     1.000

                            INITIAL TIME STEP SIZE =   87666.66    

 REUSING NON-PARAMETER GHB CELLS FROM LAST STRESS PERIOD

      2 GHB CELLS

 REUSING STREAM SEGMENT DATA FROM LAST STRESS PERIOD



            AREAL INFILTRATION RATE
 READING ON UNIT   19 WITH FORMAT: (FREE)              

            1           2           3           4           5           6           7           8           9          10
 ........................................................................................................................
   1   1.0000E-10  2.0000E-10   0.000       0.000       0.000       0.000       0.000       0.000       0.000       0.000    
   2   2.0000E-10  1.0000E-10  2.0000E-10   0.000       0.000      8.0000E-10  8.0000E-10  5.0000E-10   0.000       0.000    
   3    0.000      5.0000E-10  1.0000E-10  1.0000E-10  8.0000E-10  8.0000E-10  5.0000E-10  5.0000E-10   0.000       0.000    
   4   8.0000E-10  5.0000E-10  1.0000E-10  1.0000E-10  1.0000E-10  1.0000E-10  1.0000E-10  1.0000E-10  2.0000E-10   0.000    
   5   8.0000E-10  5.0000E-10  1.0000E-10  1.0000E-10  1.0000E-10  1.0000E-10  1.0000E-10  1.0000E-10  1.0000E-10  1.0000E-10
   6   8.0000E-10  5.0000E-10  5.0000E-10  2.0000E-10  2.0000E-10  1.0000E-10  1.0000E-10  1.0000E-10  1.0000E-10  5.0000E-10
   7   8.0000E-10  5.0000E-10  5.0000E-10  2.0000E-10  2.0000E-10  1.0000E-10  1.0000E-10  2.0000E-10  2.0000E-10   0.000    
   8    0.000      5.0000E-10  5.0000E-10  2.0000E-10  2.0000E-10  1.0000E-10  1.0000E-10  2.0000E-10  5.0000E-10   0.000    
   9    0.000      5.0000E-10  5.0000E-10  2.0000E-10  2.0000E-10  1.0000E-10  1.0000E-10  2.0000E-10  5.0000E-10   0.000    
  10    0.000      5.0000E-10  5.0000E-10  2.0000E-10  2.0000E-10  1.0000E-10  1.0000E-10  2.0000E-10  5.0000E-10  8.0000E-10
  11    0.000      1.0000E-10  1.0000E-10  1.0000E-10  1.0000E-10  1.0000E-10  1.0000E-10  2.0000E-10  5.0000E-10   0.000    
  12   1.0000E-10  1.0000E-10  1.0000E-10  1.0000E-10  1.0000E-10  1.0000E-10  1.0000E-10  1.0000E-10  2.0000E-10   0.000    
  13   1.0000E-10  1.0000E-10  2.0000E-10  2.0000E-10  2.0000E-10  2.0000E-10  2.0000E-10  1.0000E-10  1.0000E-10   0.000    
  14    0.000      2.0000E-10  5.0000E-10  5.0000E-10  5.0000E-10  5.0000E-10  5.0000E-10  2.0000E-10  1.0000E-10   0.000    
  15    0.000       0.000      8.0000E-10  8.0000E-10  8.0000E-10  8.0000E-10   0.000       0.000       0.000       0.000    

                  ET RATE =  7.500000E-08

 USING ET EXTINCTION DEPTH FROM PREVIOUS STRESS PERIOD. CURRENT PERIOD IS:      46

 USING EXTINCTION WATER CONTENT FROM PREVIOUS STRESS PERIOD. CURRENT PERIOD IS:      46

 USING AIR ENTRY PRESSURE FROM PREVIOUS STRESS PERIOD. CURRENT PERIOD IS:      46

 USING ROOT PRESSURE HEAD FROM PREVIOUS STRESS PERIOD. CURRENT PERIOD IS:      46

 USING ROOT ACTIVITY FROM PREVIOUS STRESS PERIOD. CURRENT PERIOD IS:      46

 PROCESSING AG STRESS PERIOD DATA

 READING AG STRESS PERIOD DATA

 READING IRRIGATION SEGMENT

 READING IRRIGATION WELL

 READING SUPPLEMENTAL WELL

 END PROCESSING AG STRESS PERIOD DATA OPTIONS
 
 SOLVING FOR HEAD 
                                                   Max.-Head-Change                         Max.-Flux-Residual
  Residual-Control   Outer-Iter.   Inner-Iter.     Column Row Layer    Maximum-Head-Change  Column Row Layer    Maximum-Flux-Residual          L2-NORM 
          0                 1           2             5    6     1       0.6551597218E-01       5    6    1         0.3539073256E+01      0.9086759367E+01
          0                 2           2             5    6     1      -0.8186799942E-02       5    6    1        -0.4536283829E+00      0.1141508284E+01
          0                 3           2             5    7     1       0.2276737271E-02       5    6    1         0.1281982074E+00      0.3127567904E+00
          0                 4           2             5    7     1      -0.1058086600E-03       5    6    1        -0.6115052214E-02      0.1490518492E-01
          0                 5           1             4    7     1      -0.1948357503E-04       4    7    1        -0.1104868348E-02      0.2889973346E-02

    ------------------------------------------------
       NWT REQUIRED            5 OUTER ITERATIONS 
       AND A TOTAL OF          9 INNER ITERATIONS.
    ------------------------------------------------

 NO OUTPUT CONTROL FOR STRESS PERIOD   46   TIME STEP    1
 
 SOLVING FOR HEAD 
                                                   Max.-Head-Change                         Max.-Flux-Residual
  Residual-Control   Outer-Iter.   Inner-Iter.     Column Row Layer    Maximum-Head-Change  Column Row Layer    Maximum-Flux-Residual          L2-NORM 
          0                 1           2             5    6     1       0.6308314316E-01       5    6    1         0.3405118830E+01      0.8820497304E+01
          0                 2           2             4    7     1      -0.4060769018E-01       5    6    1        -0.2210507849E+01      0.5422137632E+01
          0                 3           2             4    7     1       0.3666058512E-01       5    6    1         0.2024735402E+01      0.4974168062E+01
          0                 4           2             4    7     1      -0.1458766673E-02       5    6    1        -0.8279341326E-01      0.2150423506E+00
          0                 5           1             7   13     1       0.7955009500E-04       7   13    1         0.4557457288E-02      0.5368000584E-02

    ------------------------------------------------
       NWT REQUIRED            5 OUTER ITERATIONS 
       AND A TOTAL OF          9 INNER ITERATIONS.
    ------------------------------------------------

 NO OUTPUT CONTROL FOR STRESS PERIOD   46   TIME STEP    2
 
 SOLVING FOR HEAD 
                                                   Max.-Head-Change                         Max.-Flux-Residual
  Residual-Control   Outer-Iter.   Inner-Iter.     Column Row Layer    Maximum-Head-Change  Column Row Layer    Maximum-Flux-Residual          L2-NORM 
          0                 1           2             5    7     1       0.6107518127E-01       5    6    1         0.3278537578E+01      0.8562472766E+01
          0                 2           2             5    7     1      -0.5940922996E-02       5    6    1        -0.3278499682E+00      0.8581176356E+00
          0                 3           2             5    7     1       0.4045550927E-03       5    6    1         0.2294954355E-01      0.6005859585E-01
          0                 4           1             5    7     1      -0.1609762899E-04       5    6    1        -0.9386374677E-03      0.2455793056E-02

    ------------------------------------------------
       NWT REQUIRED            4 OUTER ITERATIONS 
       AND A TOTAL OF          7 INNER ITERATIONS.
    ------------------------------------------------

 NO OUTPUT CONTROL FOR STRESS PERIOD   46   TIME STEP    3
 
 SOLVING FOR HEAD 
                                                   Max.-Head-Change                         Max.-Flux-Residual
  Residual-Control   Outer-Iter.   Inner-Iter.     Column Row Layer    Maximum-Head-Change  Column Row Layer    Maximum-Flux-Residual          L2-NORM 
          0                 1           2             5    7     1       0.5984045215E-01       5    7    1         0.3174155129E+01      0.8323610125E+01
          0                 2           2             4    7     1      -0.4054364683E-01       5    7    1        -0.2187414124E+01      0.5377076516E+01
          0                 3           2             4    7     1       0.1248130022E-01       5    7    1         0.6893930496E+00      0.1692004701E+01
          0                 4           2             4    7     1      -0.4966434868E-03       5    7    1        -0.2819509609E-01      0.6949233188E-01
          0                 5           1             4    7     1       0.6123828449E-05       5    7    1         0.3572392422E-03      0.9311161833E-03

    ------------------------------------------------
       NWT REQUIRED            5 OUTER ITERATIONS 
       AND A TOTAL OF          9 INNER ITERATIONS.
    ------------------------------------------------

 NO OUTPUT CONTROL FOR STRESS PERIOD   46   TIME STEP    4
 
 SOLVING FOR HEAD 
                                                   Max.-Head-Change                         Max.-Flux-Residual
  Residual-Control   Outer-Iter.   Inner-Iter.     Column Row Layer    Maximum-Head-Change  Column Row Layer    Maximum-Flux-Residual          L2-NORM 
          0                 1           2             5    7     1       0.5900051606E-01       5    7    1         0.3129566136E+01      0.8172265190E+01
          0                 2           2             5    7     1      -0.5739123657E-02       5    7    1        -0.3129554545E+00      0.8183917780E+00
          0                 3           2             5    7     1       0.3908132179E-03       5    7    1         0.2190690225E-01      0.5728095005E-01
          0                 4           1             5    7     1      -0.1555082781E-04       5    7    1        -0.8959935046E-03      0.2342398097E-02

    ------------------------------------------------
       NWT REQUIRED            4 OUTER ITERATIONS 
       AND A TOTAL OF          7 INNER ITERATIONS.
    ------------------------------------------------

 NO OUTPUT CONTROL FOR STRESS PERIOD   46   TIME STEP    5
 
 SOLVING FOR HEAD 
                                                   Max.-Head-Change                         Max.-Flux-Residual
  Residual-Control   Outer-Iter.   Inner-Iter.     Column Row Layer    Maximum-Head-Change  Column Row Layer    Maximum-Flux-Residual          L2-NORM 
          0                 1           2             4    7     1       0.5794547796E-01       5    7    1         0.3066332273E+01      0.7954337604E+01
          0                 2           2             4    7     1      -0.4047945267E-01       5    7    1        -0.2176632387E+01      0.5345038623E+01
          0                 3           2             4    7     1       0.1247692747E-01       5    7    1         0.6886383035E+00      0.1689851164E+01
          0                 4           2             4    7     1      -0.4964695034E-03       5    7    1        -0.2816388053E-01      0.6940461025E-01
          0                 5           1             4    7     1       0.6121682916E-05       5    7    1         0.3568200871E-03      0.9295549583E-03

    ------------------------------------------------
       NWT REQUIRED            5 OUTER ITERATIONS 
       AND A TOTAL OF          9 INNER ITERATIONS.
    ------------------------------------------------

 NO OUTPUT CONTROL FOR STRESS PERIOD   46   TIME STEP    6
 
 SOLVING FOR HEAD 
                                                   Max.-Head-Change                         Max.-Flux-Residual
  Residual-Control   Outer-Iter.   Inner-Iter.     Column Row Layer    Maximum-Head-Change  Column Row Layer    Maximum-Flux-Residual          L2-NORM 
          0                 1           2             5    8     1       0.1924224466E+00       5    8    1         0.1055673161E+02      0.1281848966E+02
          0                 2           2             5    8     1       0.1524466498E-01       5    8    1         0.8492389368E+00      0.1118823718E+01
          0                 3           2             5    8     1       0.1207827918E-02       5    8    1         0.6619015744E-01      0.8370046160E-01
          0                 4           1             5    8     1       0.9569624134E-04       5    8    1         0.5303812899E-02      0.5689169036E-02

    ------------------------------------------------
       NWT REQUIRED            4 OUTER ITERATIONS 
       AND A TOTAL OF          7 INNER ITERATIONS.
    ------------------------------------------------

 NO OUTPUT CONTROL FOR STRESS PERIOD   46   TIME STEP    7
 
 SOLVING FOR HEAD 
                                                   Max.-Head-Change                         Max.-Flux-Residual
  Residual-Control   Outer-Iter.   Inner-Iter.     Column Row Layer    Maximum-Head-Change  Column Row Layer    Maximum-Flux-Residual          L2-NORM 
          0                 1           2             5    7     1       0.5826987205E-01       5    7    1         0.3104726305E+01      0.7522381272E+01
          0                 2           2             4    7     1      -0.4041647574E-01       5    7    1        -0.2180474242E+01      0.5156621044E+01
          0                 3           2             4    7     1       0.1247026742E-01       5    7    1         0.6889065260E+00      0.1581828692E+01
          0                 4           2             5    8     1       0.8172927415E-03       5    8    1         0.4858427749E-01      0.7989025678E-01
          0                 5           1             5    8     1       0.1051801362E-03       5    8    1         0.6128533186E-02      0.6190872212E-02
          0                 6           1             5    8     1       0.1353510459E-04       5    8    1         0.7897464016E-03      0.7899567474E-03

    ------------------------------------------------
       NWT REQUIRED            6 OUTER ITERATIONS 
       AND A TOTAL OF         10 INNER ITERATIONS.
    ------------------------------------------------

 NO OUTPUT CONTROL FOR STRESS PERIOD   46   TIME STEP    8
 
 SOLVING FOR HEAD 
                                                   Max.-Head-Change                         Max.-Flux-Residual
  Residual-Control   Outer-Iter.   Inner-Iter.     Column Row Layer    Maximum-Head-Change  Column Row Layer    Maximum-Flux-Residual          L2-NORM 
          0                 1           2             5    8     1       0.2231141592E+00       5    8    1         0.1224511912E+02      0.1414400615E+02
          0                 2           2             5    8     1       0.1775561856E-01       5    8    1         0.9878906836E+00      0.1217019493E+01
          0                 3           2             5    8     1       0.1408706108E-02       5    8    1         0.7719574771E-01      0.9201243840E-01
          0                 4           1             5    8     1       0.1117667561E-03       5    8    1         0.6188928963E-02      0.6504112584E-02
          0                 5           1             5    8     1       0.8867581119E-05       5    8    1         0.4887883319E-03      0.4899694881E-03

    ------------------------------------------------
       NWT REQUIRED            5 OUTER ITERATIONS 
       AND A TOTAL OF          8 INNER ITERATIONS.
    ------------------------------------------------

 NO OUTPUT CONTROL FOR STRESS PERIOD   46   TIME STEP    9
 
 SOLVING FOR HEAD 
                                                   Max.-Head-Change                         Max.-Flux-Residual
  Residual-Control   Outer-Iter.   Inner-Iter.     Column Row Layer    Maximum-Head-Change  Column Row Layer    Maximum-Flux-Residual          L2-NORM 
          0                 1           2             5    7     1       0.5918216454E-01       5    7    1         0.3153894262E+01      0.7413692380E+01
          0                 2           2             4    7     1      -0.4035682497E-01       5    7    1        -0.2185391285E+01      0.4931783043E+01
          0                 3           2             4    7     1       0.1246508556E-01       5    7    1         0.6892506921E+00      0.1548043694E+01
          0                 4           2             5    8     1       0.1254278619E-02       5    8    1         0.7402980290E-01      0.9746668507E-01
          0                 5           1             5    8     1       0.5915690646E-03       5    8    1         0.3449786938E-01      0.3450925055E-01
          0                 6           1             5    8     1       0.2790051678E-03       5    8    1         0.1627477444E-01      0.1627486070E-01
          0                 7           1             5    8     1       0.1315874183E-03       5    8    1         0.7675681710E-02      0.7675712495E-02
          0                 8           1             5    8     1       0.6206000549E-04       5    8    1         0.3620014615E-02      0.3620029012E-02

    ------------------------------------------------
       NWT REQUIRED            8 OUTER ITERATIONS 
       AND A TOTAL OF         12 INNER ITERATIONS.
    ------------------------------------------------

 NO OUTPUT CONTROL FOR STRESS PERIOD   46   TIME STEP   10
 
 SOLVING FOR HEAD 
                                                   Max.-Head-Change                         Max.-Flux-Residual
  Residual-Control   Outer-Iter.   Inner-Iter.     Column Row Layer    Maximum-Head-Change  Column Row Layer    Maximum-Flux-Residual          L2-NORM 
          0                 1           2             5    8     1       0.1791722619E+00       5    8    1         0.9805108254E+01      0.1201806612E+02
          0                 2           2             5    8     1       0.1421344742E-01       5    8    1         0.7931999858E+00      0.1055442842E+01
          0                 3           2             5    8     1       0.1127613976E-02       5    8    1         0.6162778530E-01      0.7874791643E-01
          0                 4           1             5    8     1       0.8945980514E-04       5    8    1         0.4960618616E-02      0.5334266700E-02

    ------------------------------------------------
       NWT REQUIRED            4 OUTER ITERATIONS 
       AND A TOTAL OF          7 INNER ITERATIONS.
    ------------------------------------------------

 NO OUTPUT CONTROL FOR STRESS PERIOD   46   TIME STEP   11
 
 SOLVING FOR HEAD 
                                                   Max.-Head-Change                         Max.-Flux-Residual
  Residual-Control   Outer-Iter.   Inner-Iter.     Column Row Layer    Maximum-Head-Change  Column Row Layer    Maximum-Flux-Residual          L2-NORM 
          0                 1           2             5    7     1       0.5894144497E-01       5    7    1         0.3165083646E+01      0.6938969332E+01
          0                 2           2             4    7     1      -0.4031516138E-01       5    7    1        -0.2186510643E+01      0.5177200834E+01
          0                 3           2             4    7     1       0.1246461090E-01       5    7    1         0.6893292327E+00      0.1624810077E+01
          0                 4           2             4    7     1      -0.4959794661E-03       5    7    1        -0.2819123773E-01      0.6675866652E-01
          0                 5           1             4    7     1       0.6115640052E-05       5    7    1         0.3571018224E-03      0.8994924917E-03

    ------------------------------------------------
       NWT REQUIRED            5 OUTER ITERATIONS 
       AND A TOTAL OF          9 INNER ITERATIONS.
    ------------------------------------------------

 NO OUTPUT CONTROL FOR STRESS PERIOD   46   TIME STEP   12
 
 SOLVING FOR HEAD 
                                                   Max.-Head-Change                         Max.-Flux-Residual
  Residual-Control   Outer-Iter.   Inner-Iter.     Column Row Layer    Maximum-Head-Change  Column Row Layer    Maximum-Flux-Residual          L2-NORM 
          0                 1           2             5    7     1       0.5746739807E-01       5    7    1         0.3082747608E+01      0.6827212351E+01
          0                 2           2             5    7     1      -0.5570924987E-02       5    7    1        -0.3082769248E+00      0.6795797399E+00
          0                 3           2             5    7     1       0.3787051520E-03       5    7    1         0.2157938375E-01      0.4761179219E-01
          0                 4           1             5    7     1      -0.1513549843E-04       5    7    1        -0.8832631977E-03      0.1950243035E-02

    ------------------------------------------------
       NWT REQUIRED            4 OUTER ITERATIONS 
       AND A TOTAL OF          7 INNER ITERATIONS.
    ------------------------------------------------

 NO OUTPUT CONTROL FOR STRESS PERIOD   46   TIME STEP   13
 
 SOLVING FOR HEAD 
                                                   Max.-Head-Change                         Max.-Flux-Residual
  Residual-Control   Outer-Iter.   Inner-Iter.     Column Row Layer    Maximum-Head-Change  Column Row Layer    Maximum-Flux-Residual          L2-NORM 
          0                 1           2             5    7     1       0.5574231548E-01       5    7    1         0.2987634727E+01      0.6663037606E+01
          0                 2           2             4    7     1      -0.4024656697E-01       5    7    1        -0.2168765532E+01      0.5149323571E+01
          0                 3           2             4    7     1       0.1245978004E-01       5    7    1         0.6880871095E+00      0.1616612565E+01
          0                 4           2             4    7     1      -0.4957872622E-03       5    7    1        -0.2814017048E-01      0.6642528765E-01
          0                 5           1             4    7     1       0.6113270378E-05       5    7    1         0.3564365063E-03      0.8957948930E-03

    ------------------------------------------------
       NWT REQUIRED            5 OUTER ITERATIONS 
       AND A TOTAL OF          9 INNER ITERATIONS.
    ------------------------------------------------

 NO OUTPUT CONTROL FOR STRESS PERIOD   46   TIME STEP   14
 
 SOLVING FOR HEAD 
                                                   Max.-Head-Change                         Max.-Flux-Residual
  Residual-Control   Outer-Iter.   Inner-Iter.     Column Row Layer    Maximum-Head-Change  Column Row Layer    Maximum-Flux-Residual          L2-NORM 
          0                 1           2             4    7     1       0.5522399772E-01       5    7    1         0.2916486276E+01      0.6565902025E+01
          0                 2           2             4    7     1      -0.5370943591E-02       5    7    1        -0.2916505796E+00      0.6522330608E+00
          0                 3           2             4    7     1       0.3657572005E-03       5    7    1         0.2042075304E-01      0.4563508650E-01
          0                 4           1             4    7     1      -0.1455258747E-04       5    7    1        -0.8343961804E-03      0.1867984295E-02

    ------------------------------------------------
       NWT REQUIRED            4 OUTER ITERATIONS 
       AND A TOTAL OF          7 INNER ITERATIONS.
    ------------------------------------------------

 NO OUTPUT CONTROL FOR STRESS PERIOD   46   TIME STEP   15
 
 SOLVING FOR HEAD 
                                                   Max.-Head-Change                         Max.-Flux-Residual
  Residual-Control   Outer-Iter.   Inner-Iter.     Column Row Layer    Maximum-Head-Change  Column Row Layer    Maximum-Flux-Residual          L2-NORM 
          0                 1           2             4    7     1       0.5472841981E-01       4    7    1         0.2869377274E+01      0.6415146393E+01
          0                 2           2             4    7     1      -0.4016510354E-01       4    7    1        -0.2156938934E+01      0.5124293721E+01
          0                 3           2             4    7     1       0.1245410484E-01       4    7    1         0.6872596046E+00      0.1610173030E+01
          0                 4           2             4    7     1      -0.4955614565E-03       4    7    1        -0.2810901607E-01      0.6616348938E-01
          0                 5           1             4    7     1       0.6110486025E-05       4    7    1         0.3562277805E-03      0.8925744544E-03

    ------------------------------------------------
       NWT REQUIRED            5 OUTER ITERATIONS 
       AND A TOTAL OF          9 INNER ITERATIONS.
    ------------------------------------------------

 NO OUTPUT CONTROL FOR STRESS PERIOD   46   TIME STEP   16
 
 SOLVING FOR HEAD 
                                                   Max.-Head-Change                         Max.-Flux-Residual
  Residual-Control   Outer-Iter.   Inner-Iter.     Column Row Layer    Maximum-Head-Change  Column Row Layer    Maximum-Flux-Residual          L2-NORM 
          0                 1           2             4    8     1       0.1926678068E+00       4    8    1         0.1042584111E+02      0.1188744853E+02
          0                 2           2             5    7     1       0.2300799802E-01       5    7    1         0.1276966918E+01      0.1619752797E+01
          0                 3           2             5    7     1       0.1016136129E-01       5    7    1         0.5604367338E+00      0.5660779645E+00
          0                 4           2             5    7     1       0.4486237190E-02       5    7    1         0.2477261417E+00      0.2478116373E+00
          0                 5           2             5    7     1       0.1980512799E-02       5    7    1         0.1093573932E+00      0.1093626294E+00
          0                 6           2             5    7     1       0.8743092563E-03       5    7    1         0.4827729656E-01      0.4827886913E-01
          0                 7           2             5    7     1       0.3859675031E-03       5    7    1         0.2131224980E-01      0.2131291712E-01
          0                 8           2             5    7     1       0.1703868322E-03       5    7    1         0.9408379046E-02      0.9408671452E-02
          0                 9           1             5    7     1       0.7521790583E-04       5    7    1         0.4153364694E-02      0.4153493605E-02

    ------------------------------------------------
       NWT REQUIRED            9 OUTER ITERATIONS 
       AND A TOTAL OF         17 INNER ITERATIONS.
    ------------------------------------------------

 NO OUTPUT CONTROL FOR STRESS PERIOD   46   TIME STEP   17
 
 SOLVING FOR HEAD 
                                                   Max.-Head-Change                         Max.-Flux-Residual
  Residual-Control   Outer-Iter.   Inner-Iter.     Column Row Layer    Maximum-Head-Change  Column Row Layer    Maximum-Flux-Residual          L2-NORM 
          0                 1           2             5    7     1       0.1278542327E+00       5    7    1         0.6963929446E+01      0.8883329202E+01
          0                 2           2             4    7     1      -0.4003401326E-01       4    7    1        -0.2169501464E+01      0.4624889110E+01
          0                 3           2             4    7     1       0.1230424504E-01       4    7    1         0.6881376001E+00      0.1366056358E+01
          0                 4           2             5    7     1       0.9081212449E-03       5    7    1         0.5417093899E-01      0.8936833396E-01
          0                 5           2             5    7     1       0.1168562992E-03       5    7    1         0.6805517582E-02      0.9280014010E-02
          0                 6           1             5    7     1       0.1503618039E-04       5    7    1         0.8770806087E-03      0.1203760421E-02

    ------------------------------------------------
       NWT REQUIRED            6 OUTER ITERATIONS 
       AND A TOTAL OF         11 INNER ITERATIONS.
    ------------------------------------------------

 NO OUTPUT CONTROL FOR STRESS PERIOD   46   TIME STEP   18
 
 SOLVING FOR HEAD 
                                                   Max.-Head-Change                         Max.-Flux-Residual
  Residual-Control   Outer-Iter.   Inner-Iter.     Column Row Layer    Maximum-Head-Change  Column Row Layer    Maximum-Flux-Residual          L2-NORM 
          0                 1           2             5    6     1       0.1488072313E+00       5    6    1         0.8149440631E+01      0.9826867420E+01
          0                 2           2             5    6     1       0.1193238285E-01       5    6    1         0.6581805766E+00      0.8465331295E+00
          0                 3           2             5    6     1       0.9581284937E-03       5    6    1         0.5238352430E-01      0.6599917140E-01
          0                 4           1             5    6     1       0.7703408792E-04       5    6    1         0.4232695057E-02      0.4962810389E-02

    ------------------------------------------------
       NWT REQUIRED            4 OUTER ITERATIONS 
       AND A TOTAL OF          7 INNER ITERATIONS.
    ------------------------------------------------

 NO OUTPUT CONTROL FOR STRESS PERIOD   46   TIME STEP   19
 
 SOLVING FOR HEAD 
                                                   Max.-Head-Change                         Max.-Flux-Residual
  Residual-Control   Outer-Iter.   Inner-Iter.     Column Row Layer    Maximum-Head-Change  Column Row Layer    Maximum-Flux-Residual          L2-NORM 
          0                 1           2             4    7     1       0.5688994072E-01       4    7    1         0.3005613597E+01      0.5762242522E+01
          0                 2           2             4    7     1      -0.4015661103E-01       4    7    1        -0.2170565657E+01      0.4594312726E+01
          0                 3           2             4    7     1       0.1229246138E-01       4    7    1         0.6882122706E+00      0.1219720343E+01
          0                 4           2             5    7     1       0.8297135690E-03       5    7    1         0.4840038276E-01      0.9394102191E-01
          0                 5           2             4    8     1       0.1087283218E-03       5    7    1         0.6252790187E-02      0.1081859316E-01
          0                 6           1             4    8     1       0.1429587015E-04       4    8    1         0.8205170111E-03      0.1417115067E-02

    ------------------------------------------------
       NWT REQUIRED            6 OUTER ITERATIONS 
       AND A TOTAL OF         11 INNER ITERATIONS.
    ------------------------------------------------

 NO OUTPUT CONTROL FOR STRESS PERIOD   46   TIME STEP   20
 
 SOLVING FOR HEAD 
                                                   Max.-Head-Change                         Max.-Flux-Residual
  Residual-Control   Outer-Iter.   Inner-Iter.     Column Row Layer    Maximum-Head-Change  Column Row Layer    Maximum-Flux-Residual          L2-NORM 
          0                 1           2             4    7     1       0.5616268097E-01       4    7    1         0.2967111631E+01      0.5704090066E+01
          0                 2           2             4    7     1      -0.5245567016E-02       4    7    1        -0.2967153570E+00      0.5405789950E+00
          0                 3           2             4    7     1       0.3748846227E-03       4    7    1         0.2093560544E-01      0.4026247113E-01
          0                 4           1             5    7     1       0.2388424366E-04       5    7    1         0.1301573198E-02      0.2591233105E-02

    ------------------------------------------------
       NWT REQUIRED            4 OUTER ITERATIONS 
       AND A TOTAL OF          7 INNER ITERATIONS.
    ------------------------------------------------

 NO OUTPUT CONTROL FOR STRESS PERIOD   46   TIME STEP   21
 
 SOLVING FOR HEAD 
                                                   Max.-Head-Change                         Max.-Flux-Residual
  Residual-Control   Outer-Iter.   Inner-Iter.     Column Row Layer    Maximum-Head-Change  Column Row Layer    Maximum-Flux-Residual          L2-NORM 
          0                 1           2             4    7     1       0.5545588113E-01       4    7    1         0.2930785352E+01      0.5583434233E+01
          0                 2           2             4    7     1      -0.4002541267E-01       4    7    1        -0.2163082763E+01      0.4593993278E+01
          0                 3           2             4    7     1       0.1228282911E-01       4    7    1         0.6876885041E+00      0.1218064240E+01
          0                 4           2             5    7     1       0.8281637563E-03       5    7    1         0.4829334152E-01      0.9358880268E-01
          0                 5           2             4    8     1       0.1082564336E-03       5    7    1         0.6241292028E-02      0.1091799763E-01
          0                 6           1             4    8     1       0.1423376257E-04       4    8    1         0.8167415051E-03      0.1412017680E-02

    ------------------------------------------------
       NWT REQUIRED            6 OUTER ITERATIONS 
       AND A TOTAL OF         11 INNER ITERATIONS.
    ------------------------------------------------

 NO OUTPUT CONTROL FOR STRESS PERIOD   46   TIME STEP   22
 
 SOLVING FOR HEAD 
                                                   Max.-Head-Change                         Max.-Flux-Residual
  Residual-Control   Outer-Iter.   Inner-Iter.     Column Row Layer    Maximum-Head-Change  Column Row Layer    Maximum-Flux-Residual          L2-NORM 
          0                 1           2             4    7     1       0.5472853711E-01       4    7    1         0.2892119200E+01      0.5531224866E+01
          0                 2           2             4    7     1      -0.5114003736E-02       4    7    1        -0.2892160274E+00      0.5245979771E+00
          0                 3           2             4    7     1       0.3652953036E-03       4    7    1         0.2040468911E-01      0.3906662809E-01
          0                 4           1             5    7     1       0.2302509884E-04       5    7    1         0.1254609164E-02      0.2513843384E-02

    ------------------------------------------------
       NWT REQUIRED            4 OUTER ITERATIONS 
       AND A TOTAL OF          7 INNER ITERATIONS.
    ------------------------------------------------

 NO OUTPUT CONTROL FOR STRESS PERIOD   46   TIME STEP   23
 
 SOLVING FOR HEAD 
                                                   Max.-Head-Change                         Max.-Flux-Residual
  Residual-Control   Outer-Iter.   Inner-Iter.     Column Row Layer    Maximum-Head-Change  Column Row Layer    Maximum-Flux-Residual          L2-NORM 
          0                 1           2             4    7     1       0.5402467259E-01       4    7    1         0.2855805549E+01      0.5416150851E+01
          0                 2           2             4    7     1      -0.3989367292E-01       4    7    1        -0.2155584677E+01      0.4593492832E+01
          0                 3           2             4    7     1       0.1227323135E-01       4    7    1         0.6871636736E+00      0.1216855877E+01
          0                 4           2             5    7     1       0.8265749537E-03       5    7    1         0.4819942016E-01      0.9342069122E-01
          0                 5           2             4    8     1       0.1080248505E-03       5    7    1         0.6229312467E-02      0.1092620415E-01
          0                 6           1             4    8     1       0.1420325332E-04       4    8    1         0.8149633918E-03      0.1409196917E-02

    ------------------------------------------------
       NWT REQUIRED            6 OUTER ITERATIONS 
       AND A TOTAL OF         11 INNER ITERATIONS.
    ------------------------------------------------

 NO OUTPUT CONTROL FOR STRESS PERIOD   46   TIME STEP   24
 
 SOLVING FOR HEAD 
                                                   Max.-Head-Change                         Max.-Flux-Residual
  Residual-Control   Outer-Iter.   Inner-Iter.     Column Row Layer    Maximum-Head-Change  Column Row Layer    Maximum-Flux-Residual          L2-NORM 
          0                 1           2             4    7     1       0.5330319452E-01       4    7    1         0.2817322543E+01      0.5369019124E+01
          0                 2           2             4    7     1      -0.4982543921E-02       4    7    1        -0.2817362453E+00      0.5095340592E+00
          0                 3           2             4    7     1       0.3557711159E-03       4    7    1         0.1987569819E-01      0.3794180506E-01
          0                 4           1             5    7     1       0.2224493885E-04       5    7    1         0.1211976818E-02      0.2441641551E-02

    ------------------------------------------------
       NWT REQUIRED            4 OUTER ITERATIONS 
       AND A TOTAL OF          7 INNER ITERATIONS.
    ------------------------------------------------

 NO OUTPUT CONTROL FOR STRESS PERIOD   46   TIME STEP   25
 
 SOLVING FOR HEAD 
                                                   Max.-Head-Change                         Max.-Flux-Residual
  Residual-Control   Outer-Iter.   Inner-Iter.     Column Row Layer    Maximum-Head-Change  Column Row Layer    Maximum-Flux-Residual          L2-NORM 
          0                 1           2             4    7     1       0.5260759630E-01       4    7    1         0.2781332869E+01      0.5259158675E+01
          0                 2           2             4    7     1      -0.3976261064E-01       4    7    1        -0.2148137280E+01      0.4592851407E+01
          0                 3           2             4    7     1       0.1226374361E-01       4    7    1         0.6866423905E+00      0.1216122281E+01
          0                 4           2             5    7     1       0.8248922925E-03       5    7    1         0.4811754770E-01      0.9320429605E-01
          0                 5           2             4    8     1       0.1079787859E-03       5    7    1         0.6216248541E-02      0.1079665802E-01
          0                 6           1             4    8     1       0.1419713313E-04       4    8    1         0.8147257852E-03      0.1404431370E-02

    ------------------------------------------------
       NWT REQUIRED            6 OUTER ITERATIONS 
       AND A TOTAL OF         11 INNER ITERATIONS.
    ------------------------------------------------

 NO OUTPUT CONTROL FOR STRESS PERIOD   46   TIME STEP   26
 
 SOLVING FOR HEAD 
                                                   Max.-Head-Change                         Max.-Flux-Residual
  Residual-Control   Outer-Iter.   Inner-Iter.     Column Row Layer    Maximum-Head-Change  Column Row Layer    Maximum-Flux-Residual          L2-NORM 
          0                 1           2             4    7     1       0.5189639464E-01       4    7    1         0.2743292120E+01      0.5216415607E+01
          0                 2           2             4    7     1      -0.4852243002E-02       4    7    1        -0.2743330668E+00      0.4953070812E+00
          0                 3           2             4    7     1       0.3463758022E-03       4    7    1         0.1935254756E-01      0.3688143075E-01
          0                 4           1             5    7     1       0.2153272764E-04       5    7    1         0.1173066829E-02      0.2374116850E-02

    ------------------------------------------------
       NWT REQUIRED            4 OUTER ITERATIONS 
       AND A TOTAL OF          7 INNER ITERATIONS.
    ------------------------------------------------

 NO OUTPUT CONTROL FOR STRESS PERIOD   46   TIME STEP   27
 
 SOLVING FOR HEAD 
                                                   Max.-Head-Change                         Max.-Flux-Residual
  Residual-Control   Outer-Iter.   Inner-Iter.     Column Row Layer    Maximum-Head-Change  Column Row Layer    Maximum-Flux-Residual          L2-NORM 
          0                 1           2             4    7     1       0.5121301321E-01       4    7    1         0.2707858863E+01      0.5111473451E+01
          0                 2           2             4    7     1      -0.3963313721E-01       4    7    1        -0.2140789734E+01      0.4592100956E+01
          0                 3           2             4    7     1       0.1225449366E-01       4    7    1         0.6861280961E+00      0.1218463933E+01
          0                 4           2             4    8     1       0.8226938793E-03       5    7    1         0.4807053879E-01      0.8919927071E-01
          0                 5           2             4    8     1       0.1080742233E-03       4    8    1         0.6202623242E-02      0.1008612874E-01
          0                 6           1             4    8     1       0.1420954546E-04       4    8    1         0.8156399911E-03      0.1323048741E-02

    ------------------------------------------------
       NWT REQUIRED            6 OUTER ITERATIONS 
       AND A TOTAL OF         11 INNER ITERATIONS.
    ------------------------------------------------

 NO OUTPUT CONTROL FOR STRESS PERIOD   46   TIME STEP   28
 
 SOLVING FOR HEAD 
                                                   Max.-Head-Change                         Max.-Flux-Residual
  Residual-Control   Outer-Iter.   Inner-Iter.     Column Row Layer    Maximum-Head-Change  Column Row Layer    Maximum-Flux-Residual          L2-NORM 
          0                 1           2             4    7     1       0.5051564982E-01       4    7    1         0.2670470328E+01      0.5072528471E+01
          0                 2           2             4    7     1      -0.4723921764E-02       4    7    1        -0.2670507386E+00      0.4818487675E+00
          0                 3           2             4    7     1       0.3371584528E-03       4    7    1         0.1883826862E-01      0.3588123460E-01
          0                 4           1             4    8     1       0.2092210529E-04       5    7    1         0.1137262100E-02      0.2310783441E-02

    ------------------------------------------------
       NWT REQUIRED            4 OUTER ITERATIONS 
       AND A TOTAL OF          7 INNER ITERATIONS.
    ------------------------------------------------

 NO OUTPUT CONTROL FOR STRESS PERIOD   46   TIME STEP   29
 
 SOLVING FOR HEAD 
                                                   Max.-Head-Change                         Max.-Flux-Residual
  Residual-Control   Outer-Iter.   Inner-Iter.     Column Row Layer    Maximum-Head-Change  Column Row Layer    Maximum-Flux-Residual          L2-NORM 
          0                 1           2             4    7     1       0.4984755572E-01       4    7    1         0.2635775157E+01      0.4972241474E+01
          0                 2           2             4    7     1      -0.3950598041E-01       4    7    1        -0.2133581208E+01      0.4591269562E+01
          0                 3           2             4    7     1       0.1224543961E-01       4    7    1         0.6856235323E+00      0.1220874630E+01
          0                 4           2             4    8     1       0.8215109059E-03       5    7    1         0.4802628715E-01      0.8603749141E-01
          0                 5           2             4    8     1       0.1080183111E-03       4    8    1         0.6193524350E-02      0.9588284174E-02
          0                 6           1             4    8     1       0.1420206329E-04       4    8    1         0.8151091315E-03      0.1257030389E-02

    ------------------------------------------------
       NWT REQUIRED            6 OUTER ITERATIONS 
       AND A TOTAL OF         11 INNER ITERATIONS.
    ------------------------------------------------

 NO OUTPUT CONTROL FOR STRESS PERIOD   46   TIME STEP   30



 STREAM LISTING     PERIOD     46   STEP       30

 LAYER ROW COL. STREAM  RCH.  FLOW INTO     FLOW TO   FLOW OUT OF   OVRLND.     DIRECT     STREAM       STREAM     STREAM     STREAM   STREAMBED  STREAMBED
                SEG.NO.  NO.  STRM. RCH.    AQUIFER    STRM. RCH.    RUNOFF     PRECIP       ET          HEAD       DEPTH      WIDTH   CONDCTNC.   GRADIENT

   1    1    1     1     1    1.8749E+01  2.1264E-01   1.8537E+01  0.000E+00  0.000E+00  0.000E+00  1.09413E+03  1.078E+00  1.159E+01  5.215E-02  1.359E+00
   1    2    2     1     2    1.8537E+01  3.2801E-01   1.8209E+01  0.000E+00  0.000E+00  0.000E+00  1.08913E+03  1.073E+00  1.150E+01  8.053E-02  1.358E+00
   1    3    3     1     3    1.8209E+01  2.7848E-01   1.7930E+01  0.000E+00  0.000E+00  0.000E+00  1.08349E+03  1.068E+00  1.141E+01  6.845E-02  1.356E+00
   1    3    4     1     4    1.7930E+01  2.5541E-01   1.7675E+01  0.000E+00  0.000E+00  0.000E+00  1.07847E+03  1.064E+00  1.132E+01  6.285E-02  1.355E+00
   1    4    5     2     1    1.5675E+01  3.0476E-01   1.5370E+01  0.000E+00  0.000E+00  0.000E+00  1.07284E+03  9.072E-01  1.200E+01  7.800E-02  1.302E+00
   1    5    6     2     2    1.5370E+01  2.3387E-01   1.5136E+01  0.000E+00  0.000E+00  0.000E+00  1.06741E+03  8.978E-01  1.200E+01  6.000E-02  1.299E+00
   1    6    6     2     3    1.5136E+01  2.3337E-01   1.4903E+01  0.000E+00  0.000E+00  0.000E+00  1.06268E+03  8.895E-01  1.200E+01  6.000E-02  1.296E+00
   1    7    6     2     4    1.4903E+01  2.3287E-01   1.4670E+01  0.000E+00  0.000E+00  0.000E+00  1.05796E+03  8.812E-01  1.200E+01  6.000E-02  1.294E+00
   1    8    6     2     5    1.4670E+01  2.3237E-01   1.4438E+01  0.000E+00  0.000E+00  0.000E+00  1.05323E+03  8.728E-01  1.200E+01  6.000E-02  1.291E+00
   1    3    5     3     1    2.0000E+00  2.8252E-01   1.7175E+00  0.000E+00  0.000E+00  0.000E+00  1.07555E+03  1.909E+00  9.636E+00  7.227E-02  1.955E+00
   1    3    6     3     2    1.7175E+00  2.4905E-01   1.4684E+00  0.000E+00  0.000E+00  0.000E+00  1.07264E+03  1.727E+00  8.909E+00  6.682E-02  1.864E+00
   1    3    7     3     3    1.4684E+00  1.9718E-01   1.2712E+00  0.000E+00  0.000E+00  0.000E+00  1.06987E+03  1.555E+00  8.218E+00  5.547E-02  1.777E+00
   1    4    8     3     4    1.2712E+00  2.2567E-01   1.0456E+00  0.000E+00  0.000E+00  0.000E+00  1.06682E+03  1.364E+00  7.455E+00  6.709E-02  1.682E+00
   1    5    8     3     5    1.0456E+00  1.5790E-01   8.8768E-01  0.000E+00  0.000E+00  0.000E+00  1.06362E+03  1.164E+00  6.655E+00  4.991E-02  1.582E+00
   1    6    8     3     6    8.8768E-01  5.5980E-02   8.3170E-01  0.000E+00  0.000E+00  0.000E+00  1.06158E+03  1.036E+00  6.145E+00  1.844E-02  1.518E+00
   1    5   10     4     1    1.0000E+01  9.0919E-02   9.9091E+00  0.000E+00  0.000E+00  0.000E+00  1.07836E+03  6.368E-01  1.000E+01  2.500E-02  1.212E+00
   1    5    9     4     2    9.9091E+00  1.8158E-01   9.7275E+00  0.000E+00  0.000E+00  0.000E+00  1.07154E+03  6.315E-01  1.000E+01  5.000E-02  1.211E+00
   1    6    8     4     3    9.7275E+00  1.2689E-01   9.6006E+00  0.000E+00  0.000E+00  0.000E+00  1.06381E+03  6.256E-01  1.000E+01  3.500E-02  1.209E+00
   1    6    8     5     1    1.0432E+01  2.2686E-01   1.0205E+01  0.000E+00  0.000E+00  0.000E+00  1.05868E+03  6.790E-01  1.542E+01  6.166E-02  1.226E+00
   1    7    7     5     2    1.0205E+01  2.7894E-01   9.9265E+00  0.000E+00  0.000E+00  0.000E+00  1.05417E+03  6.732E-01  1.519E+01  7.594E-02  1.224E+00
   1    8    7     5     3    9.9265E+00  1.9221E-01   9.7343E+00  0.000E+00  0.000E+00  0.000E+00  1.04992E+03  6.676E-01  1.497E+01  5.241E-02  1.223E+00
   1    8    6     5     4    9.7343E+00  1.3577E-01   9.5985E+00  0.000E+00  0.000E+00  0.000E+00  1.04691E+03  6.637E-01  1.482E+01  3.706E-02  1.221E+00
   1    9    6     6     1    9.5985E+00  2.2097E-01   9.3776E+00  0.000E+00  0.000E+00  0.000E+00  1.04341E+03  6.828E-01  1.200E+01  6.000E-02  1.228E+00
   1   10    7     6     2    9.3776E+00  2.2039E-01   9.1572E+00  0.000E+00  0.000E+00  0.000E+00  1.03885E+03  6.732E-01  1.200E+01  6.000E-02  1.224E+00
   1   11    7     6     3    9.1572E+00  2.1981E-01   8.9374E+00  0.000E+00  0.000E+00  0.000E+00  1.03430E+03  6.636E-01  1.200E+01  6.000E-02  1.221E+00
   1   12    7     6     4    8.9374E+00  2.1923E-01   8.7181E+00  0.000E+00  0.000E+00  0.000E+00  1.02974E+03  6.539E-01  1.200E+01  6.000E-02  1.218E+00
   1   13    7     6     5    8.7181E+00 -8.0371E-02   8.7985E+00  0.000E+00  0.000E+00  0.000E+00  1.02656E+03  6.508E-01  1.200E+01  2.400E-01 -1.116E-01
   1   14    9     7     1    1.5000E+02  1.3556E+00   1.4864E+02  0.000E+00  0.000E+00  0.000E+00  1.03987E+03  2.288E+00  5.529E+01  5.593E-01  8.079E-01
   1   13    8     7     2    1.4864E+02  1.8923E+00   1.4675E+02  0.000E+00  0.000E+00  0.000E+00  1.03478E+03  2.279E+00  5.526E+01  6.148E-01  1.026E+00
   1   13    7     7     3    1.4675E+02  1.5605E+00   1.4519E+02  0.000E+00  0.000E+00  0.000E+00  1.02969E+03  2.270E+00  5.521E+01  5.584E-01  9.315E-01
   1   13    6     8     1    1.5399E+02  9.1602E-01   1.5307E+02  0.000E+00  0.000E+00  0.000E+00  1.02472E+03  2.842E+00  4.120E+01  4.199E-01  7.272E-01
   1   13    5     8     2    1.5307E+02  1.8361E-01   1.5289E+02  0.000E+00  0.000E+00  0.000E+00  1.01846E+03  2.838E+00  4.115E+01  4.193E-01  1.460E-01
   1   13    4     8     3    1.5289E+02 -2.4762E+00   1.5537E+02  0.000E+00  0.000E+00  0.000E+00  1.01222E+03  2.846E+00  4.126E+01  4.205E+00 -1.963E-01
   1   13    3     8     4    1.5537E+02 -3.7093E+00   1.5908E+02  0.000E+00  0.000E+00  0.000E+00  1.00599E+03  2.867E+00  4.157E+01  4.236E+00 -2.919E-01
   1   13    2     8     5    1.5908E+02 -2.6915E+00   1.6177E+02  0.000E+00  0.000E+00  0.000E+00  9.99764E+02  2.889E+00  4.189E+01  4.268E+00 -2.102E-01
   1   13    1     8     6    1.6177E+02 -2.0405E+00   1.6381E+02  0.000E+00  0.000E+00  0.000E+00  9.94780E+02  2.905E+00  4.212E+01  2.575E+00 -2.641E-01
   1    8    6     9     1    1.4438E+01  0.0000E+00   1.4438E+01  0.000E+00  0.000E+00  0.000E+00  1.08157E+03  2.825E+00  4.000E+00  0.000E+00  1.942E+00
   1    8    5     9     2    1.4438E+01  0.0000E+00   1.4438E+01  0.000E+00  0.000E+00  0.000E+00  1.08107E+03  2.825E+00  4.000E+00  0.000E+00  1.942E+00





UNSATURATED ZONE PACKAGE VOLUMETRIC BUDGET FOR  TIME STEP    30 STRESS PERIOD   46
  ------------------------------------------------------------------------------



     CUMULATIVE VOLUMES      L**3       RATES FOR THIS TIME STEP      L**3/T
     ------------------                 ------------------------

           IN:                                      IN:
           ---                                      ---
        INFILTRATION =  2048526269.7081          INFILTRATION =          23.2878

          OUT:                                     OUT:
          ----                                     ----
              UZF ET =  1699156185.9340                UZF ET =          12.0675
        UZF RECHARGE =    87462128.7230          UZF RECHARGE =           0.2632

            IN - OUT =   261907955.0511              IN - OUT =          10.9571

          STORAGE:                                 STORAGE:
          --------                                 --------
      STORAGE CHANGE =   261909580.2864        STORAGE CHANGE =          10.9571

 PERCENT DISCREPANCY IS DIFFERENCE BETWEEN IN-OUT MINUS CHANGE IN STORAGE
 DIVIDED BY THE AVERAGE OF IN AND OUT TIMES 100

 PERCENT DISCREPANCY =          -0.00     PERCENT DISCREPANCY =           0.00






1
  VOLUMETRIC BUDGET FOR AGRICULTURAL FIELDS AT  END OF TIME STEP   30, STRESS PERIOD  46
  ------------------------------------------------------------------------------

     CUMULATIVE VOLUMES      L**3       RATES FOR THIS TIME STEP      L**3/T
     ------------------                 ------------------------

           IN:                                      IN:
           ---                                      ---
               AG WELLS  =   780128896.0000                 AG WELLS  =           8.0024
      DIVERSION SEGMENTS =  1168013568.0000        DIVERSION SEGMENTS =          14.4376
           GW IRRIGATION =           0.0000             GW IRRIGATION =           0.0000
           SW IRRIGATION =           0.0000             SW IRRIGATION =           0.0000
        SYSTEM LOSSES GW =           0.0000          SYSTEM LOSSES GW =           0.0000
        SYSTEM LOSSES SW =           0.0000          SYSTEM LOSSES SW =           0.0000

                TOTAL IN =  1948142464.0000                  TOTAL IN =          22.4400

          OUT:                                     OUT:
          ----                                     ----
               AG WELLS  =           0.0000                 AG WELLS  =           0.0000
      DIVERSION SEGMENTS =           0.0000        DIVERSION SEGMENTS =           0.0000
           GW IRRIGATION =   780128896.0000             GW IRRIGATION =           8.0024
           SW IRRIGATION =  1168035072.0000             SW IRRIGATION =          14.4379
        SYSTEM LOSSES GW =           0.0000          SYSTEM LOSSES GW =           0.0000
        SYSTEM LOSSES SW =           0.0000          SYSTEM LOSSES SW =           0.0000

               TOTAL OUT =  1948163968.0000                 TOTAL OUT =          22.4403

                IN - OUT =      -21504.0000                  IN - OUT =      -2.8992E-04

     PERCENT DISCREPANCY =          -0.00         PERCENT DISCREPANCY =          -0.00



1
  VOLUMETRIC BUDGET FOR ENTIRE MODEL AT END OF TIME STEP   30, STRESS PERIOD  46
  ------------------------------------------------------------------------------

     CUMULATIVE VOLUMES      L**3       RATES FOR THIS TIME STEP      L**3/T
     ------------------                 ------------------------

           IN:                                      IN:
           ---                                      ---
             STORAGE     =  1207022720.0000               STORAGE     =          10.7940
       CONSTANT HEAD     =           0.0000         CONSTANT HEAD     =           0.0000
     HEAD DEP BOUNDS     =    33891752.0000       HEAD DEP BOUNDS     =           0.2871
      STREAM LEAKAGE     =  1430498944.0000        STREAM LEAKAGE     =          11.5017
        UZF RECHARGE     =    87462112.0000          UZF RECHARGE     =           0.2632
               GW ET     =           0.0000                 GW ET     =           0.0000
     SURFACE LEAKAGE     =           0.0000       SURFACE LEAKAGE     =           0.0000
           AG WELLS      =           0.0000             AG WELLS      =           0.0000

                TOTAL IN =  2758875392.0000                  TOTAL IN =          22.8459

          OUT:                                     OUT:
          ----                                     ----
             STORAGE     =   684489472.0000               STORAGE     =           3.5576
       CONSTANT HEAD     =           0.0000         CONSTANT HEAD     =           0.0000
     HEAD DEP BOUNDS     =    34429832.0000       HEAD DEP BOUNDS     =           0.2877
      STREAM LEAKAGE     =  1256890368.0000        STREAM LEAKAGE     =          10.9979
        UZF RECHARGE     =           0.0000          UZF RECHARGE     =           0.0000
               GW ET     =     2951485.0000                 GW ET     =           0.0000
     SURFACE LEAKAGE     =           0.0000       SURFACE LEAKAGE     =           0.0000
           AG WELLS      =   780128896.0000             AG WELLS      =           8.0024

               TOTAL OUT =  2758889984.0000                 TOTAL OUT =          22.8456

                IN - OUT =      -14592.0000                  IN - OUT =       2.8801E-04

     PERCENT DISCREPANCY =          -0.00         PERCENT DISCREPANCY =           0.00






         TIME SUMMARY AT END OF TIME STEP   30 IN STRESS PERIOD   46
                    SECONDS     MINUTES      HOURS       DAYS        YEARS
                    -----------------------------------------------------------
   TIME STEP LENGTH  87667.      1461.1      24.352      1.0147     2.77799E-03
 STRESS PERIOD TIME 2.63000E+06  43833.      730.56      30.440     8.33397E-02
         TOTAL TIME 1.18435E+08 1.97392E+06  32899.      1370.8      3.7530    
1
1
                            STRESS PERIOD NO.   47, LENGTH =   2630000.    
                            -----------------------------------------------

                              NUMBER OF TIME STEPS =    30

                               MULTIPLIER FOR DELT =     1.000

                            INITIAL TIME STEP SIZE =   87666.66    

 REUSING NON-PARAMETER GHB CELLS FROM LAST STRESS PERIOD

      2 GHB CELLS

 REUSING STREAM SEGMENT DATA FROM LAST STRESS PERIOD



            AREAL INFILTRATION RATE
 READING ON UNIT   19 WITH FORMAT: (FREE)              

            1           2           3           4           5           6           7           8           9          10
 ........................................................................................................................
   1   1.0000E-10  2.0000E-10   0.000       0.000       0.000       0.000       0.000       0.000       0.000       0.000    
   2   2.0000E-10  1.0000E-10  2.0000E-10   0.000       0.000      8.0000E-10  8.0000E-10  5.0000E-10   0.000       0.000    
   3    0.000      5.0000E-10  1.0000E-10  1.0000E-10  8.0000E-10  8.0000E-10  5.0000E-10  5.0000E-10   0.000       0.000    
   4   8.0000E-10  5.0000E-10  1.0000E-10  1.0000E-10  1.0000E-10  1.0000E-10  1.0000E-10  1.0000E-10  2.0000E-10   0.000    
   5   8.0000E-10  5.0000E-10  1.0000E-10  1.0000E-10  1.0000E-10  1.0000E-10  1.0000E-10  1.0000E-10  1.0000E-10  1.0000E-10
   6   8.0000E-10  5.0000E-10  5.0000E-10  2.0000E-10  2.0000E-10  1.0000E-10  1.0000E-10  1.0000E-10  1.0000E-10  5.0000E-10
   7   8.0000E-10  5.0000E-10  5.0000E-10  2.0000E-10  2.0000E-10  1.0000E-10  1.0000E-10  2.0000E-10  2.0000E-10   0.000    
   8    0.000      5.0000E-10  5.0000E-10  2.0000E-10  2.0000E-10  1.0000E-10  1.0000E-10  2.0000E-10  5.0000E-10   0.000    
   9    0.000      5.0000E-10  5.0000E-10  2.0000E-10  2.0000E-10  1.0000E-10  1.0000E-10  2.0000E-10  5.0000E-10   0.000    
  10    0.000      5.0000E-10  5.0000E-10  2.0000E-10  2.0000E-10  1.0000E-10  1.0000E-10  2.0000E-10  5.0000E-10  8.0000E-10
  11    0.000      1.0000E-10  1.0000E-10  1.0000E-10  1.0000E-10  1.0000E-10  1.0000E-10  2.0000E-10  5.0000E-10   0.000    
  12   1.0000E-10  1.0000E-10  1.0000E-10  1.0000E-10  1.0000E-10  1.0000E-10  1.0000E-10  1.0000E-10  2.0000E-10   0.000    
  13   1.0000E-10  1.0000E-10  2.0000E-10  2.0000E-10  2.0000E-10  2.0000E-10  2.0000E-10  1.0000E-10  1.0000E-10   0.000    
  14    0.000      2.0000E-10  5.0000E-10  5.0000E-10  5.0000E-10  5.0000E-10  5.0000E-10  2.0000E-10  1.0000E-10   0.000    
  15    0.000       0.000      8.0000E-10  8.0000E-10  8.0000E-10  8.0000E-10   0.000       0.000       0.000       0.000    

                  ET RATE =  5.000000E-09

 USING ET EXTINCTION DEPTH FROM PREVIOUS STRESS PERIOD. CURRENT PERIOD IS:      47

 USING EXTINCTION WATER CONTENT FROM PREVIOUS STRESS PERIOD. CURRENT PERIOD IS:      47

 USING AIR ENTRY PRESSURE FROM PREVIOUS STRESS PERIOD. CURRENT PERIOD IS:      47

 USING ROOT PRESSURE HEAD FROM PREVIOUS STRESS PERIOD. CURRENT PERIOD IS:      47

 USING ROOT ACTIVITY FROM PREVIOUS STRESS PERIOD. CURRENT PERIOD IS:      47

 PROCESSING AG STRESS PERIOD DATA

 READING AG STRESS PERIOD DATA

 READING IRRIGATION SEGMENT

 READING IRRIGATION WELL

 READING SUPPLEMENTAL WELL

 END PROCESSING AG STRESS PERIOD DATA OPTIONS
 
 SOLVING FOR HEAD 
                                                   Max.-Head-Change                         Max.-Flux-Residual
  Residual-Control   Outer-Iter.   Inner-Iter.     Column Row Layer    Maximum-Head-Change  Column Row Layer    Maximum-Flux-Residual          L2-NORM 
          0                 1           2             4    7     1       0.4916668611E-01       4    7    1         0.2599196176E+01      0.4936630207E+01
          0                 2           2             4    7     1      -0.4598209931E-02       4    7    1        -0.2599231674E+00      0.4691019455E+00
          0                 3           2             4    7     1       0.3281564332E-03       4    7    1         0.1833518139E-01      0.3493397180E-01
          0                 4           1             4    8     1       0.2035684658E-04       5    7    1         0.1104603167E-02      0.2251316887E-02

    ------------------------------------------------
       NWT REQUIRED            4 OUTER ITERATIONS 
       AND A TOTAL OF          7 INNER ITERATIONS.
    ------------------------------------------------

 NO OUTPUT CONTROL FOR STRESS PERIOD   47   TIME STEP    1
 
 SOLVING FOR HEAD 
                                                   Max.-Head-Change                         Max.-Flux-Residual
  Residual-Control   Outer-Iter.   Inner-Iter.     Column Row Layer    Maximum-Head-Change  Column Row Layer    Maximum-Flux-Residual          L2-NORM 
          0                 1           2             4    7     1       0.4851587226E-01       4    7    1         0.2565359812E+01      0.4840745978E+01
          0                 2           2             4    7     1      -0.4538993522E-02       4    7    1        -0.2565395092E+00      0.4583725256E+00
          0                 3           2             4    7     1       0.3237897827E-03       4    7    1         0.1809520988E-01      0.3412551681E-01
          0                 4           1             4    8     1       0.1991122736E-04       5    7    1         0.1079650178E-02      0.2199482855E-02

    ------------------------------------------------
       NWT REQUIRED            4 OUTER ITERATIONS 
       AND A TOTAL OF          7 INNER ITERATIONS.
    ------------------------------------------------

 NO OUTPUT CONTROL FOR STRESS PERIOD   47   TIME STEP    2
 
 SOLVING FOR HEAD 
                                                   Max.-Head-Change                         Max.-Flux-Residual
  Residual-Control   Outer-Iter.   Inner-Iter.     Column Row Layer    Maximum-Head-Change  Column Row Layer    Maximum-Flux-Residual          L2-NORM 
          0                 1           2             4    7     1       0.4786219564E-01       4    7    1         0.2531312340E+01      0.4747687620E+01
          0                 2           2             4    7     1      -0.4479358008E-02       4    7    1        -0.2531347522E+00      0.4499603416E+00
          0                 3           2             4    7     1       0.3194056214E-03       4    7    1         0.1785388088E-01      0.3347193806E-01
          0                 4           1             4    8     1       0.1947858415E-04       4    8    1         0.1056061241E-02      0.2152034790E-02

    ------------------------------------------------
       NWT REQUIRED            4 OUTER ITERATIONS 
       AND A TOTAL OF          7 INNER ITERATIONS.
    ------------------------------------------------

 NO OUTPUT CONTROL FOR STRESS PERIOD   47   TIME STEP    3
 
 SOLVING FOR HEAD 
                                                   Max.-Head-Change                         Max.-Flux-Residual
  Residual-Control   Outer-Iter.   Inner-Iter.     Column Row Layer    Maximum-Head-Change  Column Row Layer    Maximum-Flux-Residual          L2-NORM 
          0                 1           2             4    7     1       0.4720676657E-01       4    7    1         0.2497117248E+01      0.4657843708E+01
          0                 2           2             4    7     1      -0.4419413587E-02       4    7    1        -0.2497151873E+00      0.4418209567E+00
          0                 3           2             4    7     1       0.3150112441E-03       4    7    1         0.1761158738E-01      0.3283982525E-01
          0                 4           1             4    8     1       0.1906146308E-04       4    8    1         0.1033615302E-02      0.2106488829E-02

    ------------------------------------------------
       NWT REQUIRED            4 OUTER ITERATIONS 
       AND A TOTAL OF          7 INNER ITERATIONS.
    ------------------------------------------------

 NO OUTPUT CONTROL FOR STRESS PERIOD   47   TIME STEP    4
 
 SOLVING FOR HEAD 
                                                   Max.-Head-Change                         Max.-Flux-Residual
  Residual-Control   Outer-Iter.   Inner-Iter.     Column Row Layer    Maximum-Head-Change  Column Row Layer    Maximum-Flux-Residual          L2-NORM 
          0                 1           2             4    7     1       0.4655073429E-01       4    7    1         0.2462839291E+01      0.4571023639E+01
          0                 2           2             4    7     1      -0.4359278360E-02       4    7    1        -0.2462873499E+00      0.4339386902E+00
          0                 3           2             4    7     1       0.3106151395E-03       4    7    1         0.1736883282E-01      0.3222949892E-01
          0                 4           1             4    8     1       0.1865931854E-04       4    8    1         0.1011968244E-02      0.2062735533E-02

    ------------------------------------------------
       NWT REQUIRED            4 OUTER ITERATIONS 
       AND A TOTAL OF          7 INNER ITERATIONS.
    ------------------------------------------------

 NO OUTPUT CONTROL FOR STRESS PERIOD   47   TIME STEP    5
 
 SOLVING FOR HEAD 
                                                   Max.-Head-Change                         Max.-Flux-Residual
  Residual-Control   Outer-Iter.   Inner-Iter.     Column Row Layer    Maximum-Head-Change  Column Row Layer    Maximum-Flux-Residual          L2-NORM 
          0                 1           2             4    7     1       0.4589514673E-01       4    7    1         0.2428537753E+01      0.4487062059E+01
          0                 2           2             4    7     1      -0.4299085789E-02       4    7    1        -0.2428585226E+00      0.4262992657E+00
          0                 3           2             4    7     1       0.3062404491E-03       4    7    1         0.1712693232E-01      0.3164036930E-01
          0                 4           1             4    8     1       0.1825963434E-04       4    8    1         0.9904600556E-03      0.2019668871E-02

    ------------------------------------------------
       NWT REQUIRED            4 OUTER ITERATIONS 
       AND A TOTAL OF          7 INNER ITERATIONS.
    ------------------------------------------------

 NO OUTPUT CONTROL FOR STRESS PERIOD   47   TIME STEP    6
 
 SOLVING FOR HEAD 
                                                   Max.-Head-Change                         Max.-Flux-Residual
  Residual-Control   Outer-Iter.   Inner-Iter.     Column Row Layer    Maximum-Head-Change  Column Row Layer    Maximum-Flux-Residual          L2-NORM 
          0                 1           2             4    7     1       0.4524094135E-01       4    7    1         0.2394266604E+01      0.4405984665E+01
          0                 2           2             4    6     1      -0.5036965609E-02       4    6    1        -0.2833363346E+00      0.3283586779E+00
          0                 3           2             4    6     1       0.2065064572E-02       4    6    1         0.1160839813E+00      0.2498318034E+00
          0                 4           2             5    7     1       0.1653134382E-03       4    7    1         0.8784002889E-02      0.1968437849E-01
          0                 5           1             5    7     1       0.1440617300E-04       5    7    1         0.7624654297E-03      0.1638352767E-02

    ------------------------------------------------
       NWT REQUIRED            5 OUTER ITERATIONS 
       AND A TOTAL OF          9 INNER ITERATIONS.
    ------------------------------------------------

 NO OUTPUT CONTROL FOR STRESS PERIOD   47   TIME STEP    7
 
 SOLVING FOR HEAD 
                                                   Max.-Head-Change                         Max.-Flux-Residual
  Residual-Control   Outer-Iter.   Inner-Iter.     Column Row Layer    Maximum-Head-Change  Column Row Layer    Maximum-Flux-Residual          L2-NORM 
          0                 1           2             4    7     1       0.4434428163E-01       4    7    1         0.2346479014E+01      0.4327113059E+01
          0                 2           2             4    7     1       0.3778707932E-02       4    7    1         0.2043569126E+00      0.3950862252E+00
          0                 3           2             4    7     1       0.3224033194E-03       4    7    1         0.1704466918E-01      0.3163579599E-01
          0                 4           1             4    7     1       0.2753907982E-04       4    7    1         0.1476719132E-02      0.2438968713E-02

    ------------------------------------------------
       NWT REQUIRED            4 OUTER ITERATIONS 
       AND A TOTAL OF          7 INNER ITERATIONS.
    ------------------------------------------------

 NO OUTPUT CONTROL FOR STRESS PERIOD   47   TIME STEP    8
 
 SOLVING FOR HEAD 
                                                   Max.-Head-Change                         Max.-Flux-Residual
  Residual-Control   Outer-Iter.   Inner-Iter.     Column Row Layer    Maximum-Head-Change  Column Row Layer    Maximum-Flux-Residual          L2-NORM 
          0                 1           2             4    7     1       0.4330210958E-01       4    7    1         0.2290681165E+01      0.4246444103E+01
          0                 2           2             4    6     1      -0.5271955658E-02       4    6    1        -0.2967819991E+00      0.3434429821E+00
          0                 3           2             4    6     1       0.2419473193E-02       4    6    1         0.1359172247E+00      0.2949134292E+00
          0                 4           2             5    8     1       0.2691535437E-03       5    6    1         0.1544110261E-01      0.2876536792E-01
          0                 5           1             5    8     1       0.3566600350E-04       5    8    1         0.2053979978E-02      0.3273542276E-02

    ------------------------------------------------
       NWT REQUIRED            5 OUTER ITERATIONS 
       AND A TOTAL OF          9 INNER ITERATIONS.
    ------------------------------------------------

 NO OUTPUT CONTROL FOR STRESS PERIOD   47   TIME STEP    9
 
 SOLVING FOR HEAD 
                                                   Max.-Head-Change                         Max.-Flux-Residual
  Residual-Control   Outer-Iter.   Inner-Iter.     Column Row Layer    Maximum-Head-Change  Column Row Layer    Maximum-Flux-Residual          L2-NORM 
          0                 1           2             4    7     1       0.4229691315E-01       4    7    1         0.2236895332E+01      0.4168367591E+01
          0                 2           2             4    7     1       0.3606312668E-02       4    7    1         0.1950466883E+00      0.3811826245E+00
          0                 3           2             4    7     1       0.3078552829E-03       4    7    1         0.1626757579E-01      0.3047564016E-01
          0                 4           1             4    7     1       0.2630896380E-04       4    7    1         0.1410632796E-02      0.2344697359E-02

    ------------------------------------------------
       NWT REQUIRED            4 OUTER ITERATIONS 
       AND A TOTAL OF          7 INNER ITERATIONS.
    ------------------------------------------------

 NO OUTPUT CONTROL FOR STRESS PERIOD   47   TIME STEP   10
 
 SOLVING FOR HEAD 
                                                   Max.-Head-Change                         Max.-Flux-Residual
  Residual-Control   Outer-Iter.   Inner-Iter.     Column Row Layer    Maximum-Head-Change  Column Row Layer    Maximum-Flux-Residual          L2-NORM 
          0                 1           2             5    8     1       0.1981382800E+00       5    8    1         0.1089632878E+02      0.1159295745E+02
          0                 2           2             5    8     1       0.7635899117E-01       5    8    1         0.4213088850E+01      0.4226794547E+01
          0                 3           2             5    8     1       0.3232030629E-01       5    8    1         0.1779582630E+01      0.1802375431E+01
          0                 4           2             5    8     1       0.1277490902E-01       5    8    1         0.7045390559E+00      0.7051821235E+00
          0                 5           2             5    8     1       0.5045648555E-02       5    8    1         0.2783626309E+00      0.2784108266E+00
          0                 6           1             5    8     1       0.1992539052E-02       5    8    1         0.1099344078E+00      0.1099446041E+00
          0                 7           1             5    8     1       0.7868313673E-03       5    8    1         0.4341256281E-01      0.4341603497E-01
          0                 8           1             5    8     1       0.3107085427E-03       5    8    1         0.1714306961E-01      0.1714439855E-01
          0                 9           1             5    8     1       0.1226941870E-03       5    8    1         0.6769549112E-02      0.6770070257E-02
          0                10           1             5    8     1       0.4845009293E-04       5    8    1         0.2673193908E-02      0.2673399377E-02

    ------------------------------------------------
       NWT REQUIRED           10 OUTER ITERATIONS 
       AND A TOTAL OF         15 INNER ITERATIONS.
    ------------------------------------------------

 NO OUTPUT CONTROL FOR STRESS PERIOD   47   TIME STEP   11
 
 SOLVING FOR HEAD 
                                                   Max.-Head-Change                         Max.-Flux-Residual
  Residual-Control   Outer-Iter.   Inner-Iter.     Column Row Layer    Maximum-Head-Change  Column Row Layer    Maximum-Flux-Residual          L2-NORM 
          0                 1           2             5    8     1       0.1830492953E+00       5    8    1         0.1003862467E+02      0.1085521276E+02
          0                 2           2             5    8     1       0.7253345574E-01       5    8    1         0.3996219126E+01      0.4015980541E+01
          0                 3           2             5    8     1       0.2867736294E-01       5    8    1         0.1580862876E+01      0.1581462954E+01
          0                 4           2             5    8     1       0.1133365762E-01       5    8    1         0.6249403282E+00      0.6250084987E+00
          0                 5           1             5    8     1       0.4478829928E-02       5    8    1         0.2469692258E+00      0.2469890469E+00
          0                 6           1             5    8     1       0.1769910461E-02       5    8    1         0.9759682409E-01      0.9760415377E-01
          0                 7           1             5    8     1       0.6994173187E-03       5    8    1         0.3856747397E-01      0.3857032920E-01
          0                 8           1             5    8     1       0.2763892375E-03       5    8    1         0.1524074882E-01      0.1524187364E-01
          0                 9           1             5    8     1       0.1092209140E-03       5    8    1         0.6022696960E-02      0.6023141157E-02
          0                10           1             5    8     1       0.4316089778E-04       5    8    1         0.2379993125E-02      0.2380168642E-02

    ------------------------------------------------
       NWT REQUIRED           10 OUTER ITERATIONS 
       AND A TOTAL OF         14 INNER ITERATIONS.
    ------------------------------------------------

 NO OUTPUT CONTROL FOR STRESS PERIOD   47   TIME STEP   12
 
 SOLVING FOR HEAD 
                                                   Max.-Head-Change                         Max.-Flux-Residual
  Residual-Control   Outer-Iter.   Inner-Iter.     Column Row Layer    Maximum-Head-Change  Column Row Layer    Maximum-Flux-Residual          L2-NORM 
          0                 1           2             5    8     1       0.1653888351E+00       5    8    1         0.9047109541E+01      0.1002410819E+02
          0                 2           2             5    8     1       0.6336900543E-01       5    8    1         0.3494748060E+01      0.3512472968E+01
          0                 3           2             5    8     1       0.2721760264E-01       5    8    1         0.1497103158E+01      0.1524274807E+01
          0                 4           2             5    8     1       0.1076711297E-01       5    8    1         0.5934121448E+00      0.5941357605E+00
          0                 5           2             5    8     1       0.4255612367E-02       5    8    1         0.2346362079E+00      0.2346837159E+00
          0                 6           1             5    8     1       0.1681674859E-02       5    8    1         0.9272862147E-01      0.9273766599E-01
          0                 7           1             5    8     1       0.6645139266E-03       5    8    1         0.3664243387E-01      0.3664542750E-01
          0                 8           1             5    8     1       0.2625803495E-03       5    8    1         0.1447919299E-01      0.1448034184E-01
          0                 9           1             5    8     1       0.1037574966E-03       5    8    1         0.5721396744E-02      0.5721842922E-02
          0                10           1             5    8     1       0.4099931034E-04       5    8    1         0.2260784887E-02      0.2260961526E-02

    ------------------------------------------------
       NWT REQUIRED           10 OUTER ITERATIONS 
       AND A TOTAL OF         15 INNER ITERATIONS.
    ------------------------------------------------

 NO OUTPUT CONTROL FOR STRESS PERIOD   47   TIME STEP   13
 
 SOLVING FOR HEAD 
                                                   Max.-Head-Change                         Max.-Flux-Residual
  Residual-Control   Outer-Iter.   Inner-Iter.     Column Row Layer    Maximum-Head-Change  Column Row Layer    Maximum-Flux-Residual          L2-NORM 
          0                 1           2             5    8     1       0.1497531022E+00       5    8    1         0.8174653858E+01      0.9327903820E+01
          0                 2           2             5    8     1       0.5937753725E-01       5    8    1         0.3271408296E+01      0.3299123417E+01
          0                 3           2             5    8     1       0.2347878806E-01       5    8    1         0.1294157665E+01      0.1294911313E+01
          0                 4           2             5    8     1       0.9278465112E-02       5    8    1         0.5116227324E+00      0.5116891110E+00
          0                 5           1             5    8     1       0.3666256162E-02       5    8    1         0.2021704044E+00      0.2021880965E+00
          0                 6           1             5    8     1       0.1448631915E-02       5    8    1         0.7988383919E-01      0.7989021625E-01
          0                 7           1             5    8     1       0.5723884699E-03       5    8    1         0.3156406846E-01      0.3156654006E-01
          0                 8           1             5    8     1       0.2261638548E-03       5    8    1         0.1247169846E-01      0.1247267096E-01
          0                 9           1             5    8     1       0.8936252157E-04       5    8    1         0.4927854726E-02      0.4928238643E-02

    ------------------------------------------------
       NWT REQUIRED            9 OUTER ITERATIONS 
       AND A TOTAL OF         13 INNER ITERATIONS.
    ------------------------------------------------

 NO OUTPUT CONTROL FOR STRESS PERIOD   47   TIME STEP   14
 
 SOLVING FOR HEAD 
                                                   Max.-Head-Change                         Max.-Flux-Residual
  Residual-Control   Outer-Iter.   Inner-Iter.     Column Row Layer    Maximum-Head-Change  Column Row Layer    Maximum-Flux-Residual          L2-NORM 
          0                 1           2             5    8     1       0.1359237863E+00       5    8    1         0.7403557239E+01      0.8743354858E+01
          0                 2           2             5    8     1       0.5174477978E-01       5    8    1         0.2854300878E+01      0.2878242068E+01
          0                 3           2             5    8     1       0.2263034205E-01       5    8    1         0.1244114346E+01      0.1276759440E+01
          0                 4           2             5    8     1       0.8953748630E-02       5    8    1         0.4934602814E+00      0.4942894421E+00
          0                 5           1             5    8     1       0.3538706078E-02       5    8    1         0.1951209137E+00      0.1951686819E+00
          0                 6           1             5    8     1       0.1398242675E-02       5    8    1         0.7710624669E-01      0.7711422166E-01
          0                 7           1             5    8     1       0.5524572253E-03       5    8    1         0.3046603373E-01      0.3046855740E-01
          0                 8           1             5    8     1       0.2182779956E-03       5    8    1         0.1203731237E-01      0.1203826407E-01
          0                 9           1             5    8     1       0.8624227101E-04       5    8    1         0.4755982979E-02      0.4756355257E-02

    ------------------------------------------------
       NWT REQUIRED            9 OUTER ITERATIONS 
       AND A TOTAL OF         13 INNER ITERATIONS.
    ------------------------------------------------

 NO OUTPUT CONTROL FOR STRESS PERIOD   47   TIME STEP   15
 
 SOLVING FOR HEAD 
                                                   Max.-Head-Change                         Max.-Flux-Residual
  Residual-Control   Outer-Iter.   Inner-Iter.     Column Row Layer    Maximum-Head-Change  Column Row Layer    Maximum-Flux-Residual          L2-NORM 
          0                 1           2             5    8     1       0.1236801932E+00       5    8    1         0.6721417759E+01      0.8252428254E+01
          0                 2           2             5    8     1       0.4909519019E-01       5    8    1         0.2704857190E+01      0.2742004593E+01
          0                 3           2             5    8     1       0.1941608518E-01       5    8    1         0.1070094388E+01      0.1071009650E+01
          0                 4           2             5    8     1       0.7672611969E-02       5    8    1         0.4231009257E+00      0.4231644579E+00
          0                 5           1             5    8     1       0.3031464617E-02       5    8    1         0.1671777735E+00      0.1671930149E+00
          0                 6           1             5    8     1       0.1197695577E-02       5    8    1         0.6605119854E-01      0.6605653112E-01
          0                 7           1             5    8     1       0.4731917289E-03       5    8    1         0.2609593897E-01      0.2609799525E-01
          0                 8           1             5    8     1       0.1869507284E-03       5    8    1         0.1031011057E-01      0.1031092400E-01
          0                 9           1             5    8     1       0.7386131491E-04       5    8    1         0.4073364606E-02      0.4073688296E-02

    ------------------------------------------------
       NWT REQUIRED            9 OUTER ITERATIONS 
       AND A TOTAL OF         13 INNER ITERATIONS.
    ------------------------------------------------

 NO OUTPUT CONTROL FOR STRESS PERIOD   47   TIME STEP   16
 
 SOLVING FOR HEAD 
                                                   Max.-Head-Change                         Max.-Flux-Residual
  Residual-Control   Outer-Iter.   Inner-Iter.     Column Row Layer    Maximum-Head-Change  Column Row Layer    Maximum-Flux-Residual          L2-NORM 
          0                 1           2             5    8     1       0.1128303911E+00       5    8    1         0.6117444192E+01      0.7839350949E+01
          0                 2           2             5    8     1       0.4263087725E-01       5    8    1         0.2352108039E+01      0.2383561738E+01
          0                 3           2             5    8     1       0.1901370720E-01       5    8    1         0.1045637233E+01      0.1084289474E+01
          0                 4           2             5    8     1       0.7515244998E-02       5    8    1         0.4145563548E+00      0.4155053034E+00
          0                 5           1             5    8     1       0.2966524145E-02       5    8    1         0.1637347566E+00      0.1637837588E+00
          0                 6           1             5    8     1       0.1170658331E-02       5    8    1         0.6462207575E-01      0.6462924489E-01
          0                 7           1             5    8     1       0.4619403802E-03       5    8    1         0.2550051752E-01      0.2550267425E-01
          0                 8           1             5    8     1       0.1822786853E-03       5    8    1         0.1006240387E-01      0.1006320757E-01
          0                 9           1             5    8     1       0.7192577570E-04       5    8    1         0.3970553486E-02      0.3970866783E-02

    ------------------------------------------------
       NWT REQUIRED            9 OUTER ITERATIONS 
       AND A TOTAL OF         13 INNER ITERATIONS.
    ------------------------------------------------

 NO OUTPUT CONTROL FOR STRESS PERIOD   47   TIME STEP   17
 
 SOLVING FOR HEAD 
                                                   Max.-Head-Change                         Max.-Flux-Residual
  Residual-Control   Outer-Iter.   Inner-Iter.     Column Row Layer    Maximum-Head-Change  Column Row Layer    Maximum-Flux-Residual          L2-NORM 
          0                 1           2             5    8     1      -0.6385478726E-01       5    8    1        -0.3638845403E+01      0.6180077727E+01
          0                 2           2             4    8     1       0.3707772938E-02       4    8    1         0.2010435520E+00      0.4541755079E+00
          0                 3           2             4    8     1       0.3096211995E-03       4    8    1         0.1661461201E-01      0.3472397720E-01
          0                 4           1             4    8     1       0.2612034181E-04       4    8    1         0.1401729588E-02      0.2584675771E-02

    ------------------------------------------------
       NWT REQUIRED            4 OUTER ITERATIONS 
       AND A TOTAL OF          7 INNER ITERATIONS.
    ------------------------------------------------

 NO OUTPUT CONTROL FOR STRESS PERIOD   47   TIME STEP   18
 
 SOLVING FOR HEAD 
                                                   Max.-Head-Change                         Max.-Flux-Residual
  Residual-Control   Outer-Iter.   Inner-Iter.     Column Row Layer    Maximum-Head-Change  Column Row Layer    Maximum-Flux-Residual          L2-NORM 
          0                 1           2             5    8     1      -0.7366698247E-01       5    8    1        -0.4167210430E+01      0.6331888197E+01
          0                 2           2             5    8     1       0.5249729085E-02       5    8    1         0.2990116683E+00      0.4717790715E+00
          0                 3           2             4    6     1       0.2429524259E-02       4    6    1         0.1364506523E+00      0.2951972320E+00
          0                 4           2             5    6     1       0.2685859163E-03       5    6    1         0.1558491076E-01      0.2575623463E-01
          0                 5           1             5    6     1       0.3513782949E-04       5    6    1         0.2033646569E-02      0.2585703508E-02

    ------------------------------------------------
       NWT REQUIRED            5 OUTER ITERATIONS 
       AND A TOTAL OF          9 INNER ITERATIONS.
    ------------------------------------------------

 NO OUTPUT CONTROL FOR STRESS PERIOD   47   TIME STEP   19
 
 SOLVING FOR HEAD 
                                                   Max.-Head-Change                         Max.-Flux-Residual
  Residual-Control   Outer-Iter.   Inner-Iter.     Column Row Layer    Maximum-Head-Change  Column Row Layer    Maximum-Flux-Residual          L2-NORM 
          0                 1           2             4    8     1       0.1570552027E+00       4    8    1         0.8561365338E+01      0.1018796837E+02
          0                 2           2             4    8     1       0.6327069782E-01       4    8    1         0.3432202271E+01      0.3473340632E+01
          0                 3           2             4    8     1       0.2545813359E-01       4    8    1         0.1384169738E+01      0.1384840118E+01
          0                 4           2             4    8     1       0.1024097392E-01       4    8    1         0.5566988125E+00      0.5567350105E+00
          0                 5           2             4    8     1       0.4119391167E-02       4    8    1         0.2239381437E+00      0.2239475895E+00
          0                 6           2             4    8     1       0.1656990540E-02       4    8    1         0.9007771255E-01      0.9008341703E-01
          0                 7           2             4    8     1       0.6665090242E-03       4    8    1         0.3623296598E-01      0.3623961163E-01
          0                 8           2             4    8     1       0.2680969265E-03       4    8    1         0.1457437077E-01      0.1457495321E-01
          0                 9           1             4    8     1       0.1078394331E-03       4    8    1         0.5862402184E-02      0.5862626974E-02
          0                10           1             4    8     1       0.4337738327E-04       4    8    1         0.2358095424E-02      0.2358185795E-02

    ------------------------------------------------
       NWT REQUIRED           10 OUTER ITERATIONS 
       AND A TOTAL OF         18 INNER ITERATIONS.
    ------------------------------------------------

 NO OUTPUT CONTROL FOR STRESS PERIOD   47   TIME STEP   20
 
 SOLVING FOR HEAD 
                                                   Max.-Head-Change                         Max.-Flux-Residual
  Residual-Control   Outer-Iter.   Inner-Iter.     Column Row Layer    Maximum-Head-Change  Column Row Layer    Maximum-Flux-Residual          L2-NORM 
          0                 1           2             4    8     1       0.2128343239E+00       4    8    1         0.1158039644E+02      0.1374248036E+02
          0                 2           2             4    8     1       0.8376438011E-01       4    8    1         0.4542687756E+01      0.5029533853E+01
          0                 3           2             4    8     1       0.3600226044E-01       4    8    1         0.1950549710E+01      0.2187482131E+01
          0                 4           2             4    8     1       0.1451954522E-01       4    8    1         0.7878868453E+00      0.8752208363E+00
          0                 5           2             4    8     1       0.5854014916E-02       4    8    1         0.3176514668E+00      0.3514663949E+00
          0                 6           2             4    8     1       0.2360085368E-02       4    8    1         0.1280709285E+00      0.1411862741E+00
          0                 7           2             4    8     1       0.9514676897E-03       4    8    1         0.5163204608E-01      0.5671843076E-01
          0                 8           2             4    8     1       0.3835807248E-03       4    8    1         0.2081541624E-01      0.2278801525E-01
          0                 9           2             4    8     1       0.1546381848E-03       4    8    1         0.8391647426E-02      0.9156657061E-02
          0                10           1             4    8     1       0.6234105719E-04       4    8    1         0.3383037019E-02      0.3679722982E-02

    ------------------------------------------------
       NWT REQUIRED           10 OUTER ITERATIONS 
       AND A TOTAL OF         19 INNER ITERATIONS.
    ------------------------------------------------

 NO OUTPUT CONTROL FOR STRESS PERIOD   47   TIME STEP   21
 
 SOLVING FOR HEAD 
                                                   Max.-Head-Change                         Max.-Flux-Residual
  Residual-Control   Outer-Iter.   Inner-Iter.     Column Row Layer    Maximum-Head-Change  Column Row Layer    Maximum-Flux-Residual          L2-NORM 
          0                 1           2             5    7     1       0.2087853811E+00       5    7    1         0.1150031699E+02      0.1631822658E+02
          0                 2           2             5    7     1       0.8258520644E-01       5    7    1         0.4550753979E+01      0.6273965553E+01
          0                 3           2             5    7     1       0.3261165886E-01       5    7    1         0.1799710262E+01      0.2498931725E+01
          0                 4           2             5    7     1       0.1287357482E-01       5    7    1         0.7104662520E+00      0.9963232135E+00
          0                 5           2             4    8     1       0.5184913245E-02       4    8    1         0.2814472391E+00      0.3973601441E+00
          0                 6           2             4    8     1       0.2089467350E-02       4    8    1         0.1134216038E+00      0.1585054343E+00
          0                 7           2             4    8     1       0.8420216820E-03       4    8    1         0.4570766427E-01      0.6324070216E-01
          0                 8           2             4    8     1       0.3393166775E-03       4    8    1         0.1841940699E-01      0.2523721116E-01
          0                 9           2             4    8     1       0.1367356026E-03       4    8    1         0.7422609530E-02      0.1007344993E-01
          0                10           1             4    8     1       0.5510012589E-04       4    8    1         0.2991107724E-02      0.4021673599E-02

    ------------------------------------------------
       NWT REQUIRED           10 OUTER ITERATIONS 
       AND A TOTAL OF         19 INNER ITERATIONS.
    ------------------------------------------------

 NO OUTPUT CONTROL FOR STRESS PERIOD   47   TIME STEP   22
 
 SOLVING FOR HEAD 
                                                   Max.-Head-Change                         Max.-Flux-Residual
  Residual-Control   Outer-Iter.   Inner-Iter.     Column Row Layer    Maximum-Head-Change  Column Row Layer    Maximum-Flux-Residual          L2-NORM 
          0                 1           2             5    7     1       0.1876988324E+00       5    7    1         0.1031074922E+02      0.1494568437E+02
          0                 2           2             5    7     1       0.7195230278E-01       5    7    1         0.3972432609E+01      0.5544271886E+01
          0                 3           2             4    8     1       0.3081823375E-01       5    7    1         0.1685947232E+01      0.2388278576E+01
          0                 4           2             4    8     1       0.1242426415E-01       4    8    1         0.6744319816E+00      0.9494391917E+00
          0                 5           2             4    8     1       0.5007034731E-02       4    8    1         0.2717858738E+00      0.3785519186E+00
          0                 6           2             4    8     1       0.2017691610E-02       4    8    1         0.1095307157E+00      0.1509956429E+00
          0                 7           2             4    8     1       0.8130496595E-03       4    8    1         0.4413703120E-01      0.6023774201E-01
          0                 8           2             4    8     1       0.3276214874E-03       4    8    1         0.1778542567E-01      0.2403652436E-01
          0                 9           2             4    8     1       0.1320145497E-03       4    8    1         0.7166685849E-02      0.9593385170E-02
          0                10           1             4    8     1       0.5319436590E-04       4    8    1         0.2887797925E-02      0.3829745169E-02

    ------------------------------------------------
       NWT REQUIRED           10 OUTER ITERATIONS 
       AND A TOTAL OF         19 INNER ITERATIONS.
    ------------------------------------------------

 NO OUTPUT CONTROL FOR STRESS PERIOD   47   TIME STEP   23
 
 SOLVING FOR HEAD 
                                                   Max.-Head-Change                         Max.-Flux-Residual
  Residual-Control   Outer-Iter.   Inner-Iter.     Column Row Layer    Maximum-Head-Change  Column Row Layer    Maximum-Flux-Residual          L2-NORM 
          0                 1           2             5    7     1       0.1693149200E+00       5    7    1         0.9265621713E+01      0.1393932704E+02
          0                 2           2             4    8     1       0.6768050639E-01       5    7    1         0.3696434198E+01      0.5345618645E+01
          0                 3           2             4    8     1       0.2728287726E-01       4    8    1         0.1480814843E+01      0.2137671498E+01
          0                 4           2             4    8     1       0.1099457591E-01       4    8    1         0.5968271244E+00      0.8569035598E+00
          0                 5           2             4    8     1       0.4430323743E-02       4    8    1         0.2405058649E+00      0.3435944334E+00
          0                 6           2             4    8     1       0.1785183852E-02       4    8    1         0.9691219593E-01      0.1378075138E+00
          0                 7           2             4    8     1       0.7193254628E-03       4    8    1         0.3905035154E-01      0.5528618140E-01
          0                 8           2             4    8     1       0.2898437428E-03       4    8    1         0.1573499687E-01      0.2218555436E-01
          0                 9           2             4    8     1       0.1167881421E-03       4    8    1         0.6340222626E-02      0.8904865822E-02
          0                10           1             4    8     1       0.4705763009E-04       4    8    1         0.2554692890E-02      0.3575041697E-02

    ------------------------------------------------
       NWT REQUIRED           10 OUTER ITERATIONS 
       AND A TOTAL OF         19 INNER ITERATIONS.
    ------------------------------------------------

 NO OUTPUT CONTROL FOR STRESS PERIOD   47   TIME STEP   24
 
 SOLVING FOR HEAD 
                                                   Max.-Head-Change                         Max.-Flux-Residual
  Residual-Control   Outer-Iter.   Inner-Iter.     Column Row Layer    Maximum-Head-Change  Column Row Layer    Maximum-Flux-Residual          L2-NORM 
          0                 1           2             5    6     1       0.2152749773E+00       5    6    1         0.1171517783E+02      0.1730236850E+02
          0                 2           2             5    6     1       0.8404227133E-01       5    6    1         0.4587302763E+01      0.6550630990E+01
          0                 3           2             5    6     1       0.3587809814E-01       5    6    1         0.1955124800E+01      0.2844977029E+01
          0                 4           2             5    6     1       0.1437958224E-01       5    6    1         0.7841309076E+00      0.1143199247E+01
          0                 5           2             5    6     1       0.5762026628E-02       5    6    1         0.3142189721E+00      0.4598529837E+00
          0                 6           2             5    6     1       0.2309044971E-02       5    6    1         0.1259094019E+00      0.1850044470E+00
          0                 7           2             5    6     1       0.9254235910E-03       5    6    1         0.5045721892E-01      0.7442761012E-01
          0                 8           2             5    6     1       0.3709395732E-03       5    6    1         0.2022284700E-01      0.2994315410E-01
          0                 9           2             5    6     1       0.1487029249E-03       5    6    1         0.8106171892E-02      0.1204678742E-01
          0                10           1             5    6     1       0.5961945836E-04       5    6    1         0.3249696861E-02      0.4846802451E-02

    ------------------------------------------------
       NWT REQUIRED           10 OUTER ITERATIONS 
       AND A TOTAL OF         19 INNER ITERATIONS.
    ------------------------------------------------

 NO OUTPUT CONTROL FOR STRESS PERIOD   47   TIME STEP   25
 
 SOLVING FOR HEAD 
                                                   Max.-Head-Change                         Max.-Flux-Residual
  Residual-Control   Outer-Iter.   Inner-Iter.     Column Row Layer    Maximum-Head-Change  Column Row Layer    Maximum-Flux-Residual          L2-NORM 
          0                 1           2             4    7     1       0.2485980914E+00       4    7    1         0.1328432196E+02      0.2060264433E+02
          0                 2           2             4    7     1       0.1020344990E+00       4    7    1         0.5459411228E+01      0.8359686542E+01
          0                 3           2             4    7     1       0.4186199319E-01       4    7    1         0.2240083387E+01      0.3419007761E+01
          0                 4           2             4    7     1       0.1717679093E-01       4    7    1         0.9190256306E+00      0.1400307899E+01
          0                 5           2             4    7     1       0.7049421157E-02       4    7    1         0.3771070995E+00      0.5736495356E+00
          0                 6           2             4    7     1       0.2893711769E-02       4    7    1         0.1547727563E+00      0.2350714679E+00
          0                 7           2             4    7     1       0.1188069642E-02       4    7    1         0.6353513834E-01      0.9635359251E-01
          0                 8           2             4    7     1       0.4878730697E-03       4    7    1         0.2608657197E-01      0.3950411141E-01
          0                 9           2             4    7     1       0.2003751226E-03       4    7    1         0.1071265345E-01      0.1619995151E-01
          0                10           1             4    7     1       0.8230890769E-04       4    7    1         0.4399951367E-02      0.6644678091E-02

    ------------------------------------------------
       NWT REQUIRED           10 OUTER ITERATIONS 
       AND A TOTAL OF         19 INNER ITERATIONS.
    ------------------------------------------------

 NO OUTPUT CONTROL FOR STRESS PERIOD   47   TIME STEP   26
 
 SOLVING FOR HEAD 
                                                   Max.-Head-Change                         Max.-Flux-Residual
  Residual-Control   Outer-Iter.   Inner-Iter.     Column Row Layer    Maximum-Head-Change  Column Row Layer    Maximum-Flux-Residual          L2-NORM 
          0                 1           2             4    7     1       0.2470669853E+00       4    7    1         0.1320004897E+02      0.2000874950E+02
          0                 2           2             4    7     1       0.9907617206E-01       4    7    1         0.5306620299E+01      0.7842760050E+01
          0                 3           2             4    7     1       0.4263442743E-01       4    7    1         0.2293995189E+01      0.3178719889E+01
          0                 4           2             4    7     1       0.1734545072E-01       4    7    1         0.9347259396E+00      0.1289960485E+01
          0                 5           2             4    7     1       0.7040411528E-02       4    7    1         0.3796078533E+00      0.5245835603E+00
          0                 6           2             4    7     1       0.2861669903E-02       4    7    1         0.1542766639E+00      0.2134491503E+00
          0                 7           2             4    7     1       0.1163397653E-02       4    7    1         0.6270984714E-01      0.8686479803E-01
          0                 8           2             4    7     1       0.4730678287E-03       4    7    1         0.2549543542E-01      0.3535648161E-01
          0                 9           2             4    7     1       0.1923981599E-03       4    7    1         0.1036751189E-01      0.1439335020E-01
          0                10           1             4    7     1       0.7826289711E-04       4    7    1         0.4216655590E-02      0.5860246664E-02

    ------------------------------------------------
       NWT REQUIRED           10 OUTER ITERATIONS 
       AND A TOTAL OF         19 INNER ITERATIONS.
    ------------------------------------------------

 NO OUTPUT CONTROL FOR STRESS PERIOD   47   TIME STEP   27
 
 SOLVING FOR HEAD 
                                                   Max.-Head-Change                         Max.-Flux-Residual
  Residual-Control   Outer-Iter.   Inner-Iter.     Column Row Layer    Maximum-Head-Change  Column Row Layer    Maximum-Flux-Residual          L2-NORM 
          0                 1           2             4    7     1       0.2313693275E+00       4    7    1         0.1247691741E+02      0.1789511523E+02
          0                 2           2             4    7     1       0.9409727349E-01       4    7    1         0.5069748973E+01      0.7012433445E+01
          0                 3           2             4    7     1       0.3823629331E-01       4    7    1         0.2062197446E+01      0.2846083482E+01
          0                 4           2             4    7     1       0.1553753566E-01       4    7    1         0.8378047141E+00      0.1156727589E+01
          0                 5           2             4    7     1       0.6314905152E-02       4    7    1         0.3404622774E+00      0.4704071870E+00
          0                 6           2             4    7     1       0.2567080647E-02       4    7    1         0.1383786438E+00      0.1913359722E+00
          0                 7           2             4    7     1       0.1043752982E-02       4    7    1         0.5625480231E-01      0.7784011377E-01
          0                 8           2             4    7     1       0.4244600509E-03       4    7    1         0.2287360070E-01      0.3167273195E-01
          0                 9           2             4    7     1       0.1726441648E-03       4    7    1         0.9302280325E-02      0.1288949323E-01
          0                10           1             4    7     1       0.7023251706E-04       4    7    1         0.3783722823E-02      0.5246205158E-02

    ------------------------------------------------
       NWT REQUIRED           10 OUTER ITERATIONS 
       AND A TOTAL OF         19 INNER ITERATIONS.
    ------------------------------------------------

 NO OUTPUT CONTROL FOR STRESS PERIOD   47   TIME STEP   28
 
 SOLVING FOR HEAD 
                                                   Max.-Head-Change                         Max.-Flux-Residual
  Residual-Control   Outer-Iter.   Inner-Iter.     Column Row Layer    Maximum-Head-Change  Column Row Layer    Maximum-Flux-Residual          L2-NORM 
          0                 1           2             4    7     1       0.2149420455E+00       4    7    1         0.1163803814E+02      0.1562107922E+02
          0                 2           2             4    7     1       0.8425827041E-01       4    7    1         0.4585483831E+01      0.5644411252E+01
          0                 3           2             4    7     1       0.3596250151E-01       4    7    1         0.1956036312E+01      0.2423802752E+01
          0                 4           2             4    7     1       0.1441767977E-01       4    7    1         0.7862715470E+00      0.9633285005E+00
          0                 5           2             4    7     1       0.5776533846E-02       4    7    1         0.3150408753E+00      0.3839652357E+00
          0                 6           2             4    7     1       0.2314174769E-02       4    7    1         0.1262200409E+00      0.1530629458E+00
          0                 7           2             4    7     1       0.9270739879E-03       4    7    1         0.5056504097E-01      0.6101959654E-01
          0                 8           2             4    7     1       0.3713877333E-03       4    7    1         0.2025664970E-01      0.2432831504E-01
          0                 9           1             4    7     1       0.1487773054E-03       4    7    1         0.8114837795E-02      0.9700577837E-02
          0                10           1             4    7     1       0.5959943097E-04       4    7    1         0.3250784848E-02      0.3868353648E-02

    ------------------------------------------------
       NWT REQUIRED           10 OUTER ITERATIONS 
       AND A TOTAL OF         18 INNER ITERATIONS.
    ------------------------------------------------

 NO OUTPUT CONTROL FOR STRESS PERIOD   47   TIME STEP   29
 
 SOLVING FOR HEAD 
                                                   Max.-Head-Change                         Max.-Flux-Residual
  Residual-Control   Outer-Iter.   Inner-Iter.     Column Row Layer    Maximum-Head-Change  Column Row Layer    Maximum-Flux-Residual          L2-NORM 
          0                 1           2             4    7     1       0.1963346336E+00       4    7    1         0.1072276935E+02      0.1447434331E+02
          0                 2           2             4    7     1       0.7879928240E-01       4    7    1         0.4288459973E+01      0.5289045476E+01
          0                 3           2             4    7     1       0.3157341588E-01       4    7    1         0.1722457615E+01      0.2097905672E+01
          0                 4           2             4    7     1       0.1264651480E-01       4    7    1         0.6898303202E+00      0.8353583974E+00
          0                 5           2             4    7     1       0.5065086625E-02       4    7    1         0.2763111452E+00      0.3327560463E+00
          0                 6           2             4    7     1       0.2028585127E-02       4    7    1         0.1106641364E+00      0.1325576557E+00
          0                 7           2             4    7     1       0.8124464406E-03       4    7    1         0.4432133482E-01      0.5281299760E-01
          0                 8           2             4    7     1       0.3253811577E-03       4    7    1         0.1775061906E-01      0.2104410899E-01
          0                 9           1             4    7     1       0.1303126131E-03       4    7    1         0.7109033355E-02      0.8386375861E-02
          0                10           1             4    7     1       0.5218876994E-04       4    7    1         0.2847108262E-02      0.3342497678E-02

    ------------------------------------------------
       NWT REQUIRED           10 OUTER ITERATIONS 
       AND A TOTAL OF         18 INNER ITERATIONS.
    ------------------------------------------------

 NO OUTPUT CONTROL FOR STRESS PERIOD   47   TIME STEP   30



 STREAM LISTING     PERIOD     47   STEP       30

 LAYER ROW COL. STREAM  RCH.  FLOW INTO     FLOW TO   FLOW OUT OF   OVRLND.     DIRECT     STREAM       STREAM     STREAM     STREAM   STREAMBED  STREAMBED
                SEG.NO.  NO.  STRM. RCH.    AQUIFER    STRM. RCH.    RUNOFF     PRECIP       ET          HEAD       DEPTH      WIDTH   CONDCTNC.   GRADIENT

   1    1    1     1     1    1.5942E+01  1.9373E-01   1.5748E+01  0.000E+00  0.000E+00  0.000E+00  1.09408E+03  1.028E+00  1.069E+01  4.809E-02  1.343E+00
   1    2    2     1     2    1.5748E+01  2.9868E-01   1.5450E+01  0.000E+00  0.000E+00  0.000E+00  1.08908E+03  1.024E+00  1.060E+01  7.423E-02  1.341E+00
   1    3    3     1     3    1.5450E+01  2.5341E-01   1.5196E+01  0.000E+00  0.000E+00  0.000E+00  1.08344E+03  1.018E+00  1.051E+01  6.306E-02  1.339E+00
   1    3    4     1     4    1.5196E+01  2.3228E-01   1.4964E+01  0.000E+00  0.000E+00  0.000E+00  1.07842E+03  1.014E+00  1.043E+01  5.787E-02  1.338E+00
   1    4    5     2     1    1.2964E+01  2.9708E-01   1.2667E+01  0.000E+00  0.000E+00  0.000E+00  1.07274E+03  8.087E-01  1.200E+01  7.800E-02  1.270E+00
   1    5    6     2     2    1.2667E+01  2.2792E-01   1.2439E+01  0.000E+00  0.000E+00  0.000E+00  1.06731E+03  7.987E-01  1.200E+01  6.000E-02  1.266E+00
   1    6    6     2     3    1.2439E+01  2.2740E-01   1.2211E+01  0.000E+00  0.000E+00  0.000E+00  1.06258E+03  7.900E-01  1.200E+01  6.000E-02  1.263E+00
   1    7    6     2     4    1.2211E+01  2.2687E-01   1.1985E+01  0.000E+00  0.000E+00  0.000E+00  1.05786E+03  7.812E-01  1.200E+01  6.000E-02  1.260E+00
   1    8    6     2     5    1.1985E+01  2.2634E-01   1.1758E+01  0.000E+00  0.000E+00  0.000E+00  1.05313E+03  7.724E-01  1.200E+01  6.000E-02  1.257E+00
   1    3    5     3     1    2.0000E+00  2.8252E-01   1.7175E+00  0.000E+00  0.000E+00  0.000E+00  1.07555E+03  1.909E+00  9.636E+00  7.227E-02  1.955E+00
   1    3    6     3     2    1.7175E+00  2.4905E-01   1.4684E+00  0.000E+00  0.000E+00  0.000E+00  1.07264E+03  1.727E+00  8.909E+00  6.682E-02  1.864E+00
   1    3    7     3     3    1.4684E+00  1.9718E-01   1.2712E+00  0.000E+00  0.000E+00  0.000E+00  1.06987E+03  1.555E+00  8.218E+00  5.547E-02  1.777E+00
   1    4    8     3     4    1.2712E+00  2.2567E-01   1.0456E+00  0.000E+00  0.000E+00  0.000E+00  1.06682E+03  1.364E+00  7.455E+00  6.709E-02  1.682E+00
   1    5    8     3     5    1.0456E+00  1.5790E-01   8.8768E-01  0.000E+00  0.000E+00  0.000E+00  1.06362E+03  1.164E+00  6.655E+00  4.991E-02  1.582E+00
   1    6    8     3     6    8.8768E-01  5.5980E-02   8.3170E-01  0.000E+00  0.000E+00  0.000E+00  1.06158E+03  1.036E+00  6.145E+00  1.844E-02  1.518E+00
   1    5   10     4     1    1.0000E+01  9.0919E-02   9.9091E+00  0.000E+00  0.000E+00  0.000E+00  1.07836E+03  6.368E-01  1.000E+01  2.500E-02  1.212E+00
   1    5    9     4     2    9.9091E+00  1.8158E-01   9.7275E+00  0.000E+00  0.000E+00  0.000E+00  1.07154E+03  6.315E-01  1.000E+01  5.000E-02  1.211E+00
   1    6    8     4     3    9.7275E+00  1.2689E-01   9.6006E+00  0.000E+00  0.000E+00  0.000E+00  1.06381E+03  6.256E-01  1.000E+01  3.500E-02  1.209E+00
   1    6    8     5     1    1.0432E+01  2.2686E-01   1.0205E+01  0.000E+00  0.000E+00  0.000E+00  1.05868E+03  6.790E-01  1.542E+01  6.166E-02  1.226E+00
   1    7    7     5     2    1.0205E+01  2.7894E-01   9.9265E+00  0.000E+00  0.000E+00  0.000E+00  1.05417E+03  6.732E-01  1.519E+01  7.594E-02  1.224E+00
   1    8    7     5     3    9.9265E+00  1.9221E-01   9.7343E+00  0.000E+00  0.000E+00  0.000E+00  1.04992E+03  6.676E-01  1.497E+01  5.241E-02  1.223E+00
   1    8    6     5     4    9.7343E+00  1.3577E-01   9.5985E+00  0.000E+00  0.000E+00  0.000E+00  1.04691E+03  6.637E-01  1.482E+01  3.706E-02  1.221E+00
   1    9    6     6     1    2.1357E+01  2.4643E-01   2.1110E+01  0.000E+00  0.000E+00  0.000E+00  1.04383E+03  1.107E+00  1.200E+01  6.000E-02  1.369E+00
   1   10    7     6     2    2.1110E+01  2.4596E-01   2.0864E+01  0.000E+00  0.000E+00  0.000E+00  1.03928E+03  1.099E+00  1.200E+01  6.000E-02  1.366E+00
   1   11    7     6     3    2.0864E+01  2.4550E-01   2.0619E+01  0.000E+00  0.000E+00  0.000E+00  1.03473E+03  1.092E+00  1.200E+01  6.000E-02  1.364E+00
   1   12    7     6     4    2.0619E+01  2.4503E-01   2.0374E+01  0.000E+00  0.000E+00  0.000E+00  1.03017E+03  1.084E+00  1.200E+01  6.000E-02  1.361E+00
   1   13    7     6     5    2.0374E+01  2.0062E-03   2.0372E+01  0.000E+00  0.000E+00  0.000E+00  1.02699E+03  1.080E+00  1.200E+01  2.400E-02  2.786E-02
   1   14    9     7     1    1.5000E+02  1.3563E+00   1.4864E+02  0.000E+00  0.000E+00  0.000E+00  1.03987E+03  2.288E+00  5.529E+01  5.593E-01  8.083E-01
   1   13    8     7     2    1.4864E+02  1.8930E+00   1.4675E+02  0.000E+00  0.000E+00  0.000E+00  1.03478E+03  2.279E+00  5.526E+01  6.148E-01  1.026E+00
   1   13    7     7     3    1.4675E+02  1.5545E+00   1.4520E+02  0.000E+00  0.000E+00  0.000E+00  1.02969E+03  2.270E+00  5.521E+01  5.584E-01  9.279E-01
   1   13    6     8     1    1.6557E+02  9.7505E-01   1.6459E+02  0.000E+00  0.000E+00  0.000E+00  1.02479E+03  2.920E+00  4.234E+01  4.314E-01  7.533E-01
   1   13    5     8     2    1.6459E+02  2.2388E-01   1.6437E+02  0.000E+00  0.000E+00  0.000E+00  1.01854E+03  2.916E+00  4.228E+01  4.309E-01  1.732E-01
   1   13    4     8     3    1.6437E+02 -2.2720E+00   1.6664E+02  0.000E+00  0.000E+00  0.000E+00  1.01230E+03  2.923E+00  4.238E+01  4.319E+00 -1.754E-01
   1   13    3     8     4    1.6664E+02 -3.5558E+00   1.7020E+02  0.000E+00  0.000E+00  0.000E+00  1.00607E+03  2.942E+00  4.266E+01  4.347E+00 -2.727E-01
   1   13    2     8     5    1.7020E+02 -2.5381E+00   1.7274E+02  0.000E+00  0.000E+00  0.000E+00  9.99837E+02  2.962E+00  4.294E+01  4.376E+00 -1.933E-01
   1   13    1     8     6    1.7274E+02 -1.9565E+00   1.7469E+02  0.000E+00  0.000E+00  0.000E+00  9.94851E+02  2.976E+00  4.316E+01  2.639E+00 -2.472E-01
   1    8    6     9     1    1.0239E-05  0.0000E+00   1.0239E-05  0.000E+00  0.000E+00  0.000E+00  1.07875E+03  5.773E-04  4.000E+00  0.000E+00  1.000E+00
   1    8    5     9     2    1.0239E-05  0.0000E+00   1.0239E-05  0.000E+00  0.000E+00  0.000E+00  1.07825E+03  5.773E-04  4.000E+00  0.000E+00  1.000E+00





UNSATURATED ZONE PACKAGE VOLUMETRIC BUDGET FOR  TIME STEP    30 STRESS PERIOD   47
  ------------------------------------------------------------------------------



     CUMULATIVE VOLUMES      L**3       RATES FOR THIS TIME STEP      L**3/T
     ------------------                 ------------------------

           IN:                                      IN:
           ---                                      ---
        INFILTRATION =  2052216315.9668          INFILTRATION =           0.8475

          OUT:                                     OUT:
          ----                                     ----
              UZF ET =  1703278711.9413                UZF ET =           1.5675
        UZF RECHARGE =   144180633.9691          UZF RECHARGE =          36.2718

            IN - OUT =   204756970.0565              IN - OUT =         -36.9918

          STORAGE:                                 STORAGE:
          --------                                 --------
      STORAGE CHANGE =   204758590.2109        STORAGE CHANGE =         -36.9918

 PERCENT DISCREPANCY IS DIFFERENCE BETWEEN IN-OUT MINUS CHANGE IN STORAGE
 DIVIDED BY THE AVERAGE OF IN AND OUT TIMES 100

 PERCENT DISCREPANCY =          -0.00     PERCENT DISCREPANCY =          -0.00






1
  VOLUMETRIC BUDGET FOR AGRICULTURAL FIELDS AT  END OF TIME STEP   30, STRESS PERIOD  47
  ------------------------------------------------------------------------------

     CUMULATIVE VOLUMES      L**3       RATES FOR THIS TIME STEP      L**3/T
     ------------------                 ------------------------

           IN:                                      IN:
           ---                                      ---
               AG WELLS  =   780128896.0000                 AG WELLS  =           0.0000
      DIVERSION SEGMENTS =  1169474688.0000        DIVERSION SEGMENTS =       1.0239E-05
           GW IRRIGATION =           0.0000             GW IRRIGATION =           0.0000
           SW IRRIGATION =           0.0000             SW IRRIGATION =           0.0000
        SYSTEM LOSSES GW =           0.0000          SYSTEM LOSSES GW =           0.0000
        SYSTEM LOSSES SW =           0.0000          SYSTEM LOSSES SW =           0.0000

                TOTAL IN =  1949603584.0000                  TOTAL IN =       1.0239E-05

          OUT:                                     OUT:
          ----                                     ----
               AG WELLS  =           0.0000                 AG WELLS  =           0.0000
      DIVERSION SEGMENTS =           0.0000        DIVERSION SEGMENTS =           0.0000
           GW IRRIGATION =   780128896.0000             GW IRRIGATION =           0.0000
           SW IRRIGATION =  1169496192.0000             SW IRRIGATION =       1.0239E-05
        SYSTEM LOSSES GW =           0.0000          SYSTEM LOSSES GW =           0.0000
        SYSTEM LOSSES SW =           0.0000          SYSTEM LOSSES SW =           0.0000

               TOTAL OUT =  1949625088.0000                 TOTAL OUT =       1.0239E-05

                IN - OUT =      -21504.0000                  IN - OUT =      -2.0464E-10

     PERCENT DISCREPANCY =          -0.00         PERCENT DISCREPANCY =          -0.00



1
  VOLUMETRIC BUDGET FOR ENTIRE MODEL AT END OF TIME STEP   30, STRESS PERIOD  47
  ------------------------------------------------------------------------------

     CUMULATIVE VOLUMES      L**3       RATES FOR THIS TIME STEP      L**3/T
     ------------------                 ------------------------

           IN:                                      IN:
           ---                                      ---
             STORAGE     =  1229923712.0000               STORAGE     =           9.1901
       CONSTANT HEAD     =           0.0000         CONSTANT HEAD     =           0.0000
     HEAD DEP BOUNDS     =    34646908.0000       HEAD DEP BOUNDS     =           0.2872
      STREAM LEAKAGE     =  1461076608.0000        STREAM LEAKAGE     =          11.5729
        UZF RECHARGE     =   144180624.0000          UZF RECHARGE     =          36.2718
               GW ET     =           0.0000                 GW ET     =           0.0000
     SURFACE LEAKAGE     =           0.0000       SURFACE LEAKAGE     =           0.0000
           AG WELLS      =           0.0000             AG WELLS      =           0.0000

                TOTAL IN =  2869828096.0000                  TOTAL IN =          57.3219

          OUT:                                     OUT:
          ----                                     ----
             STORAGE     =   767759872.0000               STORAGE     =          46.7091
       CONSTANT HEAD     =           0.0000         CONSTANT HEAD     =           0.0000
     HEAD DEP BOUNDS     =    35188008.0000       HEAD DEP BOUNDS     =           0.2885
      STREAM LEAKAGE     =  1283810560.0000        STREAM LEAKAGE     =          10.3224
        UZF RECHARGE     =           0.0000          UZF RECHARGE     =           0.0000
               GW ET     =     2951485.0000                 GW ET     =           0.0000
     SURFACE LEAKAGE     =           0.0000       SURFACE LEAKAGE     =           0.0000
           AG WELLS      =   780128896.0000             AG WELLS      =           0.0000

               TOTAL OUT =  2869838848.0000                 TOTAL OUT =          57.3200

                IN - OUT =      -10752.0000                  IN - OUT =       1.8578E-03

     PERCENT DISCREPANCY =          -0.00         PERCENT DISCREPANCY =           0.00






         TIME SUMMARY AT END OF TIME STEP   30 IN STRESS PERIOD   47
                    SECONDS     MINUTES      HOURS       DAYS        YEARS
                    -----------------------------------------------------------
   TIME STEP LENGTH  87667.      1461.1      24.352      1.0147     2.77799E-03
 STRESS PERIOD TIME 2.63000E+06  43833.      730.56      30.440     8.33397E-02
         TOTAL TIME 1.21065E+08 2.01775E+06  33629.      1401.2      3.8363    
1
1
                            STRESS PERIOD NO.   48, LENGTH =   2630000.    
                            -----------------------------------------------

                              NUMBER OF TIME STEPS =    30

                               MULTIPLIER FOR DELT =     1.000

                            INITIAL TIME STEP SIZE =   87666.66    

 REUSING NON-PARAMETER GHB CELLS FROM LAST STRESS PERIOD

      2 GHB CELLS

 REUSING STREAM SEGMENT DATA FROM LAST STRESS PERIOD



            AREAL INFILTRATION RATE
 READING ON UNIT   19 WITH FORMAT: (FREE)              

            1           2           3           4           5           6           7           8           9          10
 ........................................................................................................................
   1   1.0000E-10  2.0000E-10   0.000       0.000       0.000       0.000       0.000       0.000       0.000       0.000    
   2   2.0000E-10  1.0000E-10  2.0000E-10   0.000       0.000      8.0000E-10  8.0000E-10  5.0000E-10   0.000       0.000    
   3    0.000      5.0000E-10  1.0000E-10  1.0000E-10  8.0000E-10  8.0000E-10  5.0000E-10  5.0000E-10   0.000       0.000    
   4   8.0000E-10  5.0000E-10  1.0000E-10  1.0000E-10  1.0000E-10  1.0000E-10  1.0000E-10  1.0000E-10  2.0000E-10   0.000    
   5   8.0000E-10  5.0000E-10  1.0000E-10  1.0000E-10  1.0000E-10  1.0000E-10  1.0000E-10  1.0000E-10  1.0000E-10  1.0000E-10
   6   8.0000E-10  5.0000E-10  5.0000E-10  2.0000E-10  2.0000E-10  1.0000E-10  1.0000E-10  1.0000E-10  1.0000E-10  5.0000E-10
   7   8.0000E-10  5.0000E-10  5.0000E-10  2.0000E-10  2.0000E-10  1.0000E-10  1.0000E-10  2.0000E-10  2.0000E-10   0.000    
   8    0.000      5.0000E-10  5.0000E-10  2.0000E-10  2.0000E-10  1.0000E-10  1.0000E-10  2.0000E-10  5.0000E-10   0.000    
   9    0.000      5.0000E-10  5.0000E-10  2.0000E-10  2.0000E-10  1.0000E-10  1.0000E-10  2.0000E-10  5.0000E-10   0.000    
  10    0.000      5.0000E-10  5.0000E-10  2.0000E-10  2.0000E-10  1.0000E-10  1.0000E-10  2.0000E-10  5.0000E-10  8.0000E-10
  11    0.000      1.0000E-10  1.0000E-10  1.0000E-10  1.0000E-10  1.0000E-10  1.0000E-10  2.0000E-10  5.0000E-10   0.000    
  12   1.0000E-10  1.0000E-10  1.0000E-10  1.0000E-10  1.0000E-10  1.0000E-10  1.0000E-10  1.0000E-10  2.0000E-10   0.000    
  13   1.0000E-10  1.0000E-10  2.0000E-10  2.0000E-10  2.0000E-10  2.0000E-10  2.0000E-10  1.0000E-10  1.0000E-10   0.000    
  14    0.000      2.0000E-10  5.0000E-10  5.0000E-10  5.0000E-10  5.0000E-10  5.0000E-10  2.0000E-10  1.0000E-10   0.000    
  15    0.000       0.000      8.0000E-10  8.0000E-10  8.0000E-10  8.0000E-10   0.000       0.000       0.000       0.000    

                  ET RATE =  5.000000E-10

 USING ET EXTINCTION DEPTH FROM PREVIOUS STRESS PERIOD. CURRENT PERIOD IS:      48

 USING EXTINCTION WATER CONTENT FROM PREVIOUS STRESS PERIOD. CURRENT PERIOD IS:      48

 USING AIR ENTRY PRESSURE FROM PREVIOUS STRESS PERIOD. CURRENT PERIOD IS:      48

 USING ROOT PRESSURE HEAD FROM PREVIOUS STRESS PERIOD. CURRENT PERIOD IS:      48

 USING ROOT ACTIVITY FROM PREVIOUS STRESS PERIOD. CURRENT PERIOD IS:      48

 PROCESSING AG STRESS PERIOD DATA

 READING AG STRESS PERIOD DATA

 READING IRRIGATION SEGMENT

 READING IRRIGATION WELL

 READING SUPPLEMENTAL WELL

 END PROCESSING AG STRESS PERIOD DATA OPTIONS
 
 SOLVING FOR HEAD 
                                                   Max.-Head-Change                         Max.-Flux-Residual
  Residual-Control   Outer-Iter.   Inner-Iter.     Column Row Layer    Maximum-Head-Change  Column Row Layer    Maximum-Flux-Residual          L2-NORM 
          0                 1           2             4    7     1       0.1795197357E+00       4    7    1         0.9785054858E+01      0.1330124068E+02
          0                 2           2             4    7     1       0.7207367076E-01       4    7    1         0.3923130496E+01      0.4819747297E+01
          0                 3           2             4    7     1       0.2887903742E-01       4    7    1         0.1575411051E+01      0.1911177195E+01
          0                 4           2             4    7     1       0.1156678022E-01       4    7    1         0.6309658382E+00      0.7610910161E+00
          0                 5           2             4    7     1       0.4632374223E-02       4    7    1         0.2527173209E+00      0.3031826208E+00
          0                 6           2             4    7     1       0.1855171533E-02       4    7    1         0.1012089102E+00      0.1207813065E+00
          0                 7           2             4    7     1       0.7429497973E-03       4    7    1         0.4053204310E-01      0.4812274485E-01
          0                 8           2             4    7     1       0.2975301762E-03       4    7    1         0.1623203836E-01      0.1917583072E-01
          0                 9           1             4    7     1       0.1191513585E-03       4    7    1         0.6500458585E-02      0.7642075870E-02
          0                10           1             4    7     1       0.4771594912E-04       4    7    1         0.2603222892E-02      0.3045936489E-02

    ------------------------------------------------
       NWT REQUIRED           10 OUTER ITERATIONS 
       AND A TOTAL OF         18 INNER ITERATIONS.
    ------------------------------------------------

 NO OUTPUT CONTROL FOR STRESS PERIOD   48   TIME STEP    1
 
 SOLVING FOR HEAD 
                                                   Max.-Head-Change                         Max.-Flux-Residual
  Residual-Control   Outer-Iter.   Inner-Iter.     Column Row Layer    Maximum-Head-Change  Column Row Layer    Maximum-Flux-Residual          L2-NORM 
          0                 1           2             4    6     1       0.2623752474E+00       4    6    1         0.1408057662E+02      0.1824111323E+02
          0                 2           2             4    6     1       0.1071760358E+00       4    6    1         0.5755970591E+01      0.7301133277E+01
          0                 3           2             4    6     1       0.4378556387E-01       4    6    1         0.2350816344E+01      0.2985544717E+01
          0                 4           2             4    6     1       0.1789035975E-01       4    6    1         0.9604750652E+00      0.1222715305E+01
          0                 5           2             4    6     1       0.7310707408E-02       4    6    1         0.3924460423E+00      0.5007793425E+00
          0                 6           2             4    6     1       0.2987785572E-02       4    6    1         0.1603732464E+00      0.2051048739E+00
          0                 7           2             4    6     1       0.1221199979E-02       4    6    1         0.6554376190E-01      0.8400634493E-01
          0                 8           2             4    6     1       0.4991938854E-03       4    6    1         0.2679032912E-01      0.3440761228E-01
          0                 9           2             4    6     1       0.2040773023E-03       4    6    1         0.1095139112E-01      0.1409297327E-01
          0                10           1             4    6     1       0.8343746774E-04       4    6    1         0.4477165121E-02      0.5772393188E-02

    ------------------------------------------------
       NWT REQUIRED           10 OUTER ITERATIONS 
       AND A TOTAL OF         19 INNER ITERATIONS.
    ------------------------------------------------

 NO OUTPUT CONTROL FOR STRESS PERIOD   48   TIME STEP    2
 
 SOLVING FOR HEAD 
                                                   Max.-Head-Change                         Max.-Flux-Residual
  Residual-Control   Outer-Iter.   Inner-Iter.     Column Row Layer    Maximum-Head-Change  Column Row Layer    Maximum-Flux-Residual          L2-NORM 
          0                 1           2             4    6     1       0.2467526948E+00       4    6    1         0.1339277723E+02      0.1625247558E+02
          0                 2           2             4    6     1       0.9886539281E-01       4    6    1         0.5395494926E+01      0.5417253104E+01
          0                 3           2             4    6     1       0.3957990368E-01       4    6    1         0.2159953432E+01      0.2160240651E+01
          0                 4           2             4    6     1       0.1584377417E-01       4    6    1         0.8646735687E+00      0.8647089037E+00
          0                 5           2             4    6     1       0.6342219167E-02       4    6    1         0.3461238745E+00      0.3461382895E+00
          0                 6           2             4    6     1       0.2538774564E-02       4    6    1         0.1385526160E+00      0.1385584196E+00
          0                 7           2             4    6     1       0.1016265358E-02       4    6    1         0.5546226919E-01      0.5546459514E-01
          0                 8           2             4    6     1       0.4068085998E-03       4    6    1         0.2220141577E-01      0.2220234690E-01
          0                 9           2             4    6     1       0.1628445142E-03       4    6    1         0.8887174035E-02      0.8887546732E-02
          0                10           1             4    6     1       0.6518627152E-04       4    6    1         0.3557514699E-02      0.3557663874E-02

    ------------------------------------------------
       NWT REQUIRED           10 OUTER ITERATIONS 
       AND A TOTAL OF         19 INNER ITERATIONS.
    ------------------------------------------------

 NO OUTPUT CONTROL FOR STRESS PERIOD   48   TIME STEP    3
 
 SOLVING FOR HEAD 
                                                   Max.-Head-Change                         Max.-Flux-Residual
  Residual-Control   Outer-Iter.   Inner-Iter.     Column Row Layer    Maximum-Head-Change  Column Row Layer    Maximum-Flux-Residual          L2-NORM 
          0                 1           2             4    6     1       0.2240211087E+00       4    6    1         0.1228700672E+02      0.1344229918E+02
          0                 2           2             4    6     1       0.8965573022E-01       4    6    1         0.4888158946E+01      0.4918408708E+01
          0                 3           2             4    6     1       0.3588062734E-01       4    6    1         0.1958921288E+01      0.1959263714E+01
          0                 4           2             4    6     1       0.1435961143E-01       4    6    1         0.7837689217E+00      0.7837760744E+00
          0                 5           2             4    6     1       0.5746793758E-02       4    6    1         0.3136848223E+00      0.3136856174E+00
          0                 6           2             4    6     1       0.2299898351E-02       4    6    1         0.1255372877E+00      0.1255376645E+00
          0                 7           2             4    6     1       0.9204320128E-03       4    6    1         0.5024081224E-01      0.5024095764E-01
          0                 8           2             4    6     1       0.3683619857E-03       4    6    1         0.2010664726E-01      0.2010670580E-01
          0                 9           2             4    6     1       0.1474205077E-03       4    6    1         0.8046792492E-02      0.8046815887E-02
          0                10           1             4    6     1       0.5899850443E-04       4    6    1         0.3220371034E-02      0.3220380415E-02

    ------------------------------------------------
       NWT REQUIRED           10 OUTER ITERATIONS 
       AND A TOTAL OF         19 INNER ITERATIONS.
    ------------------------------------------------

 NO OUTPUT CONTROL FOR STRESS PERIOD   48   TIME STEP    4
 
 SOLVING FOR HEAD 
                                                   Max.-Head-Change                         Max.-Flux-Residual
  Residual-Control   Outer-Iter.   Inner-Iter.     Column Row Layer    Maximum-Head-Change  Column Row Layer    Maximum-Flux-Residual          L2-NORM 
          0                 1           2             4    6     1       0.2035244793E+00       4    6    1         0.1114916848E+02      0.1219144518E+02
          0                 2           2             4    6     1       0.8144808283E-01       4    6    1         0.4442177939E+01      0.4469475074E+01
          0                 3           2             4    6     1       0.3259462156E-01       4    6    1         0.1779481229E+01      0.1779797036E+01
          0                 4           2             4    6     1       0.1304402497E-01       4    6    1         0.7119900777E+00      0.7119958679E+00
          0                 5           2             4    6     1       0.5220084587E-02       4    6    1         0.2849433969E+00      0.2849441402E+00
          0                 6           2             4    6     1       0.2089024612E-02       4    6    1         0.1140305868E+00      0.1140309278E+00
          0                 7           2             4    6     1       0.8360064184E-03       4    6    1         0.4563395962E-01      0.4563409187E-01
          0                 8           2             4    6     1       0.3345612842E-03       4    6    1         0.1826224446E-01      0.1826229766E-01
          0                 9           2             4    6     1       0.1338880323E-03       4    6    1         0.7308365700E-02      0.7308386956E-02
          0                10           1             4    6     1       0.5358063277E-04       4    6    1         0.2924733907E-02      0.2924742411E-02

    ------------------------------------------------
       NWT REQUIRED           10 OUTER ITERATIONS 
       AND A TOTAL OF         19 INNER ITERATIONS.
    ------------------------------------------------

 NO OUTPUT CONTROL FOR STRESS PERIOD   48   TIME STEP    5
 
 SOLVING FOR HEAD 
                                                   Max.-Head-Change                         Max.-Flux-Residual
  Residual-Control   Outer-Iter.   Inner-Iter.     Column Row Layer    Maximum-Head-Change  Column Row Layer    Maximum-Flux-Residual          L2-NORM 
          0                 1           2             4    6     1       0.1851334260E+00       4    6    1         0.1012879375E+02      0.1109487522E+02
          0                 2           2             4    6     1       0.7408516955E-01       4    6    1         0.4042062019E+01      0.4067344686E+01
          0                 3           2             4    6     1       0.2964652634E-01       4    6    1         0.1618499963E+01      0.1618799664E+01
          0                 4           2             4    6     1       0.1186362663E-01       4    6    1         0.6475901679E+00      0.6475948082E+00
          0                 5           2             4    6     1       0.4747461742E-02       4    6    1         0.2591548043E+00      0.2591555025E+00
          0                 6           2             4    6     1       0.1899790110E-02       4    6    1         0.1037052817E+00      0.1037055910E+00
          0                 7           2             4    6     1       0.7602384482E-03       4    6    1         0.4149977784E-01      0.4149989844E-01
          0                 8           2             4    6     1       0.3042244114E-03       4    6    1         0.1660695327E-01      0.1660700179E-01
          0                 9           2             4    6     1       0.1217414023E-03       4    6    1         0.6645600809E-02      0.6645620176E-02
          0                10           1             4    6     1       0.4871722503E-04       4    6    1         0.2659368410E-02      0.2659376585E-02

    ------------------------------------------------
       NWT REQUIRED           10 OUTER ITERATIONS 
       AND A TOTAL OF         19 INNER ITERATIONS.
    ------------------------------------------------

 NO OUTPUT CONTROL FOR STRESS PERIOD   48   TIME STEP    6
 
 SOLVING FOR HEAD 
                                                   Max.-Head-Change                         Max.-Flux-Residual
  Residual-Control   Outer-Iter.   Inner-Iter.     Column Row Layer    Maximum-Head-Change  Column Row Layer    Maximum-Flux-Residual          L2-NORM 
          0                 1           2             4    6     1       0.1686240135E+00       4    6    1         0.9213266370E+01      0.1013541192E+02
          0                 2           2             4    6     1       0.6747450472E-01       4    6    1         0.3682814053E+01      0.3706955909E+01
          0                 3           2             4    6     1       0.2699973536E-01       4    6    1         0.1473977521E+01      0.1474270702E+01
          0                 4           2             4    6     1       0.1080389505E-01       4    6    1         0.5897733880E+00      0.5897770756E+00
          0                 5           2             4    6     1       0.4323162114E-02       4    6    1         0.2360027547E+00      0.2360034120E+00
          0                 6           2             4    6     1       0.1729907250E-02       4    6    1         0.9443575017E-01      0.9443603092E-01
          0                 7           2             4    6     1       0.6922200414E-03       4    6    1         0.3778838762E-01      0.3778849772E-01
          0                 8           2             4    6     1       0.2769909251E-03       4    6    1         0.1512097189E-01      0.1512101610E-01
          0                 9           2             4    6     1       0.1108375505E-03       4    6    1         0.6050637401E-02      0.6050655070E-02
          0                10           1             4    6     1       0.4435149926E-04       4    6    1         0.2421154612E-02      0.2421161686E-02

    ------------------------------------------------
       NWT REQUIRED           10 OUTER ITERATIONS 
       AND A TOTAL OF         19 INNER ITERATIONS.
    ------------------------------------------------

 NO OUTPUT CONTROL FOR STRESS PERIOD   48   TIME STEP    7
 
 SOLVING FOR HEAD 
                                                   Max.-Head-Change                         Max.-Flux-Residual
  Residual-Control   Outer-Iter.   Inner-Iter.     Column Row Layer    Maximum-Head-Change  Column Row Layer    Maximum-Flux-Residual          L2-NORM 
          0                 1           2             4    6     1       0.1537963691E+00       4    6    1         0.8391362232E+01      0.9297520845E+01
          0                 2           2             4    6     1       0.6193757998E-01       4    6    1         0.3377009290E+01      0.3399918709E+01
          0                 3           2             4    6     1       0.2483255780E-01       4    6    1         0.1353433784E+01      0.1353720243E+01
          0                 4           2             4    6     1       0.9956111868E-02       4    6    1         0.5426539530E+00      0.5426565524E+00
          0                 5           2             4    6     1       0.3991705517E-02       4    6    1         0.2175685017E+00      0.2175691161E+00
          0                 6           2             4    6     1       0.1600395742E-02       4    6    1         0.8722964981E-01      0.8722989861E-01
          0                 7           2             4    6     1       0.6416472648E-03       4    6    1         0.3497305134E-01      0.3497315001E-01
          0                 8           2             4    6     1       0.2572558947E-03       4    6    1         0.1402176001E-01      0.1402179964E-01
          0                 9           1             4    6     1       0.1031417110E-03       4    6    1         0.5621750527E-02      0.5621766402E-02
          0                10           1             4    6     1       0.4135264884E-04       4    6    1         0.2253930847E-02      0.2253937297E-02

    ------------------------------------------------
       NWT REQUIRED           10 OUTER ITERATIONS 
       AND A TOTAL OF         18 INNER ITERATIONS.
    ------------------------------------------------

 NO OUTPUT CONTROL FOR STRESS PERIOD   48   TIME STEP    8
 
 SOLVING FOR HEAD 
                                                   Max.-Head-Change                         Max.-Flux-Residual
  Residual-Control   Outer-Iter.   Inner-Iter.     Column Row Layer    Maximum-Head-Change  Column Row Layer    Maximum-Flux-Residual          L2-NORM 
          0                 1           2             4    6     1       0.1411692560E+00       4    6    1         0.7677258479E+01      0.8592371367E+01
          0                 2           2             4    6     1       0.5659500917E-01       4    6    1         0.3086752106E+01      0.3110840782E+01
          0                 3           2             4    6     1       0.2268911915E-01       4    6    1         0.1236614693E+01      0.1236919686E+01
          0                 4           2             4    6     1       0.9096161737E-02       4    6    1         0.4958113952E+00      0.4958136031E+00
          0                 5           2             4    6     1       0.3646692026E-02       4    6    1         0.1987735214E+00      0.1987740985E+00
          0                 6           2             4    6     1       0.1461975697E-02       4    6    1         0.7968915325E-01      0.7968938025E-01
          0                 7           2             4    6     1       0.5861129004E-03       4    6    1         0.3194778090E-01      0.3194787130E-01
          0                 8           2             4    6     1       0.2349754187E-03       4    6    1         0.1280801627E-01      0.1280805257E-01
          0                 9           1             4    6     1       0.9420275277E-04       4    6    1         0.5134794540E-02      0.5134809092E-02

    ------------------------------------------------
       NWT REQUIRED            9 OUTER ITERATIONS 
       AND A TOTAL OF         17 INNER ITERATIONS.
    ------------------------------------------------

 NO OUTPUT CONTROL FOR STRESS PERIOD   48   TIME STEP    9
 
 SOLVING FOR HEAD 
                                                   Max.-Head-Change                         Max.-Flux-Residual
  Residual-Control   Outer-Iter.   Inner-Iter.     Column Row Layer    Maximum-Head-Change  Column Row Layer    Maximum-Flux-Residual          L2-NORM 
          0                 1           2             4    5     1       0.4342282215E-01       4    5    1         0.2325904052E+01      0.4055146144E+01
          0                 2           2             4    5     1      -0.4171019648E-02       4    5    1        -0.2325927206E+00      0.3793893538E+00
          0                 3           2             4    5     1       0.2857708104E-03       4    5    1         0.1630388018E-01      0.2633332045E-01
          0                 4           1             4    5     1      -0.1131352228E-04       4    5    1        -0.6653299961E-03      0.1076592393E-02

    ------------------------------------------------
       NWT REQUIRED            4 OUTER ITERATIONS 
       AND A TOTAL OF          7 INNER ITERATIONS.
    ------------------------------------------------

 NO OUTPUT CONTROL FOR STRESS PERIOD   48   TIME STEP   10
 
 SOLVING FOR HEAD 
                                                   Max.-Head-Change                         Max.-Flux-Residual
  Residual-Control   Outer-Iter.   Inner-Iter.     Column Row Layer    Maximum-Head-Change  Column Row Layer    Maximum-Flux-Residual          L2-NORM 
          0                 1           2             4    6     1      -0.5690114997E-01       4    6    1        -0.3129043623E+01      0.4785057150E+01
          0                 2           2             4    6     1       0.5525401140E-02       4    6    1         0.3123653338E+00      0.4781492202E+00
          0                 3           2             4    6     1      -0.3762630195E-03       4    6    1        -0.2186583009E-01      0.3347065931E-01
          0                 4           1             4    6     1       0.1497183787E-04       4    6    1         0.8943125399E-03      0.1368953205E-02

    ------------------------------------------------
       NWT REQUIRED            4 OUTER ITERATIONS 
       AND A TOTAL OF          7 INNER ITERATIONS.
    ------------------------------------------------

 NO OUTPUT CONTROL FOR STRESS PERIOD   48   TIME STEP   11
 
 SOLVING FOR HEAD 
                                                   Max.-Head-Change                         Max.-Flux-Residual
  Residual-Control   Outer-Iter.   Inner-Iter.     Column Row Layer    Maximum-Head-Change  Column Row Layer    Maximum-Flux-Residual          L2-NORM 
          0                 1           2             4    6     1      -0.5378938635E-01       4    6    1        -0.2957076966E+01      0.4551590417E+01
          0                 2           2             4    6     1       0.5231904189E-02       4    6    1         0.2956843799E+00      0.4551403110E+00
          0                 3           2             4    6     1      -0.3562765680E-03       4    6    1        -0.2069813615E-01      0.3186000877E-01
          0                 4           1             4    6     1       0.1417656058E-04       4    6    1         0.8465539220E-03      0.1303076016E-02

    ------------------------------------------------
       NWT REQUIRED            4 OUTER ITERATIONS 
       AND A TOTAL OF          7 INNER ITERATIONS.
    ------------------------------------------------

 NO OUTPUT CONTROL FOR STRESS PERIOD   48   TIME STEP   12
 
 SOLVING FOR HEAD 
                                                   Max.-Head-Change                         Max.-Flux-Residual
  Residual-Control   Outer-Iter.   Inner-Iter.     Column Row Layer    Maximum-Head-Change  Column Row Layer    Maximum-Flux-Residual          L2-NORM 
          0                 1           2             4    6     1      -0.5085350521E-01       4    6    1        -0.2794902611E+01      0.4332549437E+01
          0                 2           2             4    6     1       0.4946360104E-02       4    6    1         0.2794695174E+00      0.4332384726E+00
          0                 3           2             4    6     1      -0.3368317119E-03       4    6    1        -0.1956307093E-01      0.3032685983E-01
          0                 4           1             4    6     1       0.1340283403E-04       4    6    1         0.8001298190E-03      0.1240370591E-02

    ------------------------------------------------
       NWT REQUIRED            4 OUTER ITERATIONS 
       AND A TOTAL OF          7 INNER ITERATIONS.
    ------------------------------------------------

 NO OUTPUT CONTROL FOR STRESS PERIOD   48   TIME STEP   13
 
 SOLVING FOR HEAD 
                                                   Max.-Head-Change                         Max.-Flux-Residual
  Residual-Control   Outer-Iter.   Inner-Iter.     Column Row Layer    Maximum-Head-Change  Column Row Layer    Maximum-Flux-Residual          L2-NORM 
          0                 1           2             4    6     1      -0.4809044693E-01       4    6    1        -0.2642335782E+01      0.4127190945E+01
          0                 2           2             4    6     1       0.4677622710E-02       4    6    1         0.2642151119E+00      0.4127046206E+00
          0                 3           2             4    6     1      -0.3185313703E-03       4    6    1        -0.1849524053E-01      0.2888947146E-01
          0                 4           1             4    6     1       0.1267464781E-04       4    6    1         0.7564555822E-03      0.1181594563E-02

    ------------------------------------------------
       NWT REQUIRED            4 OUTER ITERATIONS 
       AND A TOTAL OF          7 INNER ITERATIONS.
    ------------------------------------------------

 NO OUTPUT CONTROL FOR STRESS PERIOD   48   TIME STEP   14
 
 SOLVING FOR HEAD 
                                                   Max.-Head-Change                         Max.-Flux-Residual
  Residual-Control   Outer-Iter.   Inner-Iter.     Column Row Layer    Maximum-Head-Change  Column Row Layer    Maximum-Flux-Residual          L2-NORM 
          0                 1           2             4    6     1      -0.4548944073E-01       4    6    1        -0.2498774478E+01      0.3934565071E+01
          0                 2           2             4    6     1       0.4424644808E-02       4    6    1         0.2498609982E+00      0.3934437752E+00
          0                 3           2             4    6     1      -0.3013042289E-03       4    6    1        -0.1749043306E-01      0.2754119267E-01
          0                 4           1             4    6     1       0.1198916542E-04       4    6    1         0.7153589952E-03      0.1126435653E-02

    ------------------------------------------------
       NWT REQUIRED            4 OUTER ITERATIONS 
       AND A TOTAL OF          7 INNER ITERATIONS.
    ------------------------------------------------

 NO OUTPUT CONTROL FOR STRESS PERIOD   48   TIME STEP   15
 
 SOLVING FOR HEAD 
                                                   Max.-Head-Change                         Max.-Flux-Residual
  Residual-Control   Outer-Iter.   Inner-Iter.     Column Row Layer    Maximum-Head-Change  Column Row Layer    Maximum-Flux-Residual          L2-NORM 
          0                 1           2             4    6     1      -0.4303997348E-01       4    6    1        -0.2363630567E+01      0.3753768186E+01
          0                 2           2             4    6     1       0.4186404206E-02       4    6    1         0.2363483942E+00      0.3753656224E+00
          0                 3           2             4    6     1      -0.2850806747E-03       4    6    1        -0.1654453345E-01      0.2627570681E-01
          0                 4           1             4    6     1       0.1134361641E-04       4    6    1         0.6766717138E-03      0.1074677266E-02

    ------------------------------------------------
       NWT REQUIRED            4 OUTER ITERATIONS 
       AND A TOTAL OF          7 INNER ITERATIONS.
    ------------------------------------------------

 NO OUTPUT CONTROL FOR STRESS PERIOD   48   TIME STEP   16
 
 SOLVING FOR HEAD 
                                                   Max.-Head-Change                         Max.-Flux-Residual
  Residual-Control   Outer-Iter.   Inner-Iter.     Column Row Layer    Maximum-Head-Change  Column Row Layer    Maximum-Flux-Residual          L2-NORM 
          0                 1           2             4    6     1      -0.4073228306E-01       4    6    1        -0.2236358916E+01      0.3583976136E+01
          0                 2           2             4    6     1       0.3961948342E-02       4    6    1         0.2236228139E+00      0.3581934544E+00
          0                 3           2             4    6     1      -0.2697958393E-03       4    6    1        -0.1565372747E-01      0.2507364106E-01
          0                 4           1             4    6     1       0.1073542009E-04       4    6    1         0.6402377751E-03      0.1025512538E-02

    ------------------------------------------------
       NWT REQUIRED            4 OUTER ITERATIONS 
       AND A TOTAL OF          7 INNER ITERATIONS.
    ------------------------------------------------

 NO OUTPUT CONTROL FOR STRESS PERIOD   48   TIME STEP   17
 
 SOLVING FOR HEAD 
                                                   Max.-Head-Change                         Max.-Flux-Residual
  Residual-Control   Outer-Iter.   Inner-Iter.     Column Row Layer    Maximum-Head-Change  Column Row Layer    Maximum-Flux-Residual          L2-NORM 
          0                 1           2             4    6     1      -0.3855705751E-01       4    6    1        -0.2116438704E+01      0.3424532456E+01
          0                 2           2             4    6     1       0.3750381868E-02       4    6    1         0.2116321994E+00      0.3424448129E+00
          0                 3           2             4    6     1      -0.2553887484E-03       4    6    1        -0.1481437077E-01      0.2397122779E-01
          0                 4           1             4    6     1       0.1016214934E-04       4    6    1         0.6059080981E-03      0.9804262085E-03

    ------------------------------------------------
       NWT REQUIRED            4 OUTER ITERATIONS 
       AND A TOTAL OF          7 INNER ITERATIONS.
    ------------------------------------------------

 NO OUTPUT CONTROL FOR STRESS PERIOD   48   TIME STEP   18
 
 SOLVING FOR HEAD 
                                                   Max.-Head-Change                         Max.-Flux-Residual
  Residual-Control   Outer-Iter.   Inner-Iter.     Column Row Layer    Maximum-Head-Change  Column Row Layer    Maximum-Flux-Residual          L2-NORM 
          0                 1           2             4    6     1      -0.3650615670E-01       4    6    1        -0.2003416167E+01      0.3275025215E+01
          0                 2           2             4    6     1       0.3550903159E-02       4    6    1         0.2003311949E+00      0.3274951015E+00
          0                 3           2             4    6     1      -0.2418048119E-03       4    6    1        -0.1402328831E-01      0.2292473574E-01
          0                 4           1             4    6     1       0.9621632857E-05       4    6    1         0.5735528298E-03      0.9376247582E-03

    ------------------------------------------------
       NWT REQUIRED            4 OUTER ITERATIONS 
       AND A TOTAL OF          7 INNER ITERATIONS.
    ------------------------------------------------

 NO OUTPUT CONTROL FOR STRESS PERIOD   48   TIME STEP   19
 
 SOLVING FOR HEAD 
                                                   Max.-Head-Change                         Max.-Flux-Residual
  Residual-Control   Outer-Iter.   Inner-Iter.     Column Row Layer    Maximum-Head-Change  Column Row Layer    Maximum-Flux-Residual          L2-NORM 
          0                 1           2             4    6     1      -0.3457177640E-01       4    6    1        -0.1896854950E+01      0.3134346903E+01
          0                 2           2             4    6     1       0.3362756713E-02       4    6    1         0.1896761833E+00      0.3134281581E+00
          0                 3           2             4    6     1      -0.2289925803E-03       4    6    1        -0.1327742668E-01      0.2194003616E-01
          0                 4           1             4    6     1       0.9111823436E-05       4    6    1         0.5430471201E-03      0.8973485828E-03

    ------------------------------------------------
       NWT REQUIRED            4 OUTER ITERATIONS 
       AND A TOTAL OF          7 INNER ITERATIONS.
    ------------------------------------------------

 NO OUTPUT CONTROL FOR STRESS PERIOD   48   TIME STEP   20
 
 SOLVING FOR HEAD 
                                                   Max.-Head-Change                         Max.-Flux-Residual
  Residual-Control   Outer-Iter.   Inner-Iter.     Column Row Layer    Maximum-Head-Change  Column Row Layer    Maximum-Flux-Residual          L2-NORM 
          0                 1           2             4    6     1      -0.3274664241E-01       4    6    1        -0.1796350206E+01      0.3001909452E+01
          0                 2           2             4    6     1       0.3185235182E-02       4    6    1         0.1796266960E+00      0.3001851920E+00
          0                 3           2             4    6     1      -0.2169038828E-03       4    6    1        -0.1257395293E-01      0.2101302118E-01
          0                 4           1             4    6     1       0.8630803513E-05       4    6    1         0.5142750226E-03      0.8594339889E-03

    ------------------------------------------------
       NWT REQUIRED            4 OUTER ITERATIONS 
       AND A TOTAL OF          7 INNER ITERATIONS.
    ------------------------------------------------

 NO OUTPUT CONTROL FOR STRESS PERIOD   48   TIME STEP   21
 
 SOLVING FOR HEAD 
                                                   Max.-Head-Change                         Max.-Flux-Residual
  Residual-Control   Outer-Iter.   Inner-Iter.     Column Row Layer    Maximum-Head-Change  Column Row Layer    Maximum-Flux-Residual          L2-NORM 
          0                 1           2             4    6     1      -0.3102346075E-01       4    6    1        -0.1701495143E+01      0.2877144268E+01
          0                 2           2             4    6     1       0.3017629267E-02       4    6    1         0.1701420681E+00      0.2877093522E+00
          0                 3           2             4    6     1      -0.2054904172E-03       4    6    1        -0.1191002037E-01      0.2013970223E-01
          0                 4           1             4    6     1       0.8176652069E-05       4    6    1         0.4871201977E-03      0.8237124571E-03

    ------------------------------------------------
       NWT REQUIRED            4 OUTER ITERATIONS 
       AND A TOTAL OF          7 INNER ITERATIONS.
    ------------------------------------------------

 NO OUTPUT CONTROL FOR STRESS PERIOD   48   TIME STEP   22
 
 SOLVING FOR HEAD 
                                                   Max.-Head-Change                         Max.-Flux-Residual
  Residual-Control   Outer-Iter.   Inner-Iter.     Column Row Layer    Maximum-Head-Change  Column Row Layer    Maximum-Flux-Residual          L2-NORM 
          0                 1           2             4    6     1      -0.2939651183E-01       4    6    1        -0.1611970781E+01      0.2759557262E+01
          0                 2           2             4    6     1       0.2859394189E-02       4    6    1         0.1611913663E+00      0.2751510403E+00
          0                 3           2             4    6     1      -0.1947148214E-03       4    6    1        -0.1128341616E-01      0.1925477630E-01
          0                 4           1             4    6     1       0.7747859782E-05       4    6    1         0.4614923032E-03      0.7887737965E-03

    ------------------------------------------------
       NWT REQUIRED            4 OUTER ITERATIONS 
       AND A TOTAL OF          7 INNER ITERATIONS.
    ------------------------------------------------

 NO OUTPUT CONTROL FOR STRESS PERIOD   48   TIME STEP   23
 
 SOLVING FOR HEAD 
                                                   Max.-Head-Change                         Max.-Flux-Residual
  Residual-Control   Outer-Iter.   Inner-Iter.     Column Row Layer    Maximum-Head-Change  Column Row Layer    Maximum-Flux-Residual          L2-NORM 
          0                 1           2             4    6     1      -0.2785960820E-01       4    6    1        -0.1527435508E+01      0.2648712847E+01
          0                 2           2             4    6     1       0.2709965430E-02       4    6    1         0.1527420807E+00      0.2636246009E+00
          0                 3           2             4    6     1      -0.1845385987E-03       4    6    1        -0.1069196416E-01      0.1844213288E-01
          0                 4           1             4    6     1       0.7342970288E-05       4    6    1         0.4373018835E-03      0.7542700524E-03

    ------------------------------------------------
       NWT REQUIRED            4 OUTER ITERATIONS 
       AND A TOTAL OF          7 INNER ITERATIONS.
    ------------------------------------------------

 NO OUTPUT CONTROL FOR STRESS PERIOD   48   TIME STEP   24
 
 SOLVING FOR HEAD 
                                                   Max.-Head-Change                         Max.-Flux-Residual
  Residual-Control   Outer-Iter.   Inner-Iter.     Column Row Layer    Maximum-Head-Change  Column Row Layer    Maximum-Flux-Residual          L2-NORM 
          0                 1           2             4    6     1      -0.2640718439E-01       4    6    1        -0.1447581313E+01      0.2544006713E+01
          0                 2           2             4    6     1       0.2568686340E-02       4    6    1         0.1447568230E+00      0.2531880126E+00
          0                 3           2             4    6     1      -0.1749180004E-03       4    6    1        -0.1013299436E-01      0.1771172438E-01
          0                 4           1             4    6     1       0.6960157892E-05       4    6    1         0.4144400023E-03      0.7243928971E-03

    ------------------------------------------------
       NWT REQUIRED            4 OUTER ITERATIONS 
       AND A TOTAL OF          7 INNER ITERATIONS.
    ------------------------------------------------

 NO OUTPUT CONTROL FOR STRESS PERIOD   48   TIME STEP   25
 
 SOLVING FOR HEAD 
                                                   Max.-Head-Change                         Max.-Flux-Residual
  Residual-Control   Outer-Iter.   Inner-Iter.     Column Row Layer    Maximum-Head-Change  Column Row Layer    Maximum-Flux-Residual          L2-NORM 
          0                 1           2             4    6     1      -0.2503400195E-01       4    6    1        -0.1372111025E+01      0.2445160414E+01
          0                 2           2             4    6     1       0.2434830853E-02       4    6    1         0.1372099376E+00      0.2428244942E+00
          0                 3           2             4    6     1      -0.1658029236E-03       4    6    1        -0.9604710898E-02      0.1698637467E-01
          0                 4           1             4    6     1       0.6597460821E-05       4    6    1         0.3928331851E-03      0.6947270048E-03

    ------------------------------------------------
       NWT REQUIRED            4 OUTER ITERATIONS 
       AND A TOTAL OF          7 INNER ITERATIONS.
    ------------------------------------------------

 NO OUTPUT CONTROL FOR STRESS PERIOD   48   TIME STEP   26
 
 SOLVING FOR HEAD 
                                                   Max.-Head-Change                         Max.-Flux-Residual
  Residual-Control   Outer-Iter.   Inner-Iter.     Column Row Layer    Maximum-Head-Change  Column Row Layer    Maximum-Flux-Residual          L2-NORM 
          0                 1           2             4    6     1      -0.2373605305E-01       4    6    1        -0.1300764535E+01      0.2352233780E+01
          0                 2           2             4    6     1       0.2308861813E-02       4    6    1         0.1300754180E+00      0.2340677578E+00
          0                 3           2             4    6     1      -0.1572248845E-03       4    6    1        -0.9105292990E-02      0.1637353456E-01
          0                 4           1             4    6     1       0.6256132353E-05       4    6    1         0.3724069511E-03      0.6696627532E-03

    ------------------------------------------------
       NWT REQUIRED            4 OUTER ITERATIONS 
       AND A TOTAL OF          7 INNER ITERATIONS.
    ------------------------------------------------

 NO OUTPUT CONTROL FOR STRESS PERIOD   48   TIME STEP   27
 
 SOLVING FOR HEAD 
                                                   Max.-Head-Change                         Max.-Flux-Residual
  Residual-Control   Outer-Iter.   Inner-Iter.     Column Row Layer    Maximum-Head-Change  Column Row Layer    Maximum-Flux-Residual          L2-NORM 
          0                 1           2             4    6     1      -0.2250831655E-01       4    6    1        -0.1233318187E+01      0.2264563137E+01
          0                 2           2             4    6     1       0.2189438013E-02       4    6    1         0.1233308971E+00      0.2253243480E+00
          0                 3           2             4    6     1      -0.1490925554E-03       4    6    1        -0.8633175234E-02      0.1576160564E-01
          0                 4           1             4    6     1       0.5932539523E-05       4    6    1         0.3530973111E-03      0.6446348696E-03

    ------------------------------------------------
       NWT REQUIRED            4 OUTER ITERATIONS 
       AND A TOTAL OF          7 INNER ITERATIONS.
    ------------------------------------------------

 NO OUTPUT CONTROL FOR STRESS PERIOD   48   TIME STEP   28
 
 SOLVING FOR HEAD 
                                                   Max.-Head-Change                         Max.-Flux-Residual
  Residual-Control   Outer-Iter.   Inner-Iter.     Column Row Layer    Maximum-Head-Change  Column Row Layer    Maximum-Flux-Residual          L2-NORM 
          0                 1           2             4    6     1      -0.2134642452E-01       4    6    1        -0.1169512689E+01      0.2181651851E+01
          0                 2           2             4    6     1       0.2076418911E-02       4    6    1         0.1169504485E+00      0.2170541338E+00
          0                 3           2             4    6     1      -0.1413963645E-03       4    6    1        -0.8186542702E-02      0.1518276582E-01
          0                 4           1             4    6     1       0.5626301257E-05       4    6    1         0.3348300343E-03      0.6210042015E-03

    ------------------------------------------------
       NWT REQUIRED            4 OUTER ITERATIONS 
       AND A TOTAL OF          7 INNER ITERATIONS.
    ------------------------------------------------

 NO OUTPUT CONTROL FOR STRESS PERIOD   48   TIME STEP   29
 
 SOLVING FOR HEAD 
                                                   Max.-Head-Change                         Max.-Flux-Residual
  Residual-Control   Outer-Iter.   Inner-Iter.     Column Row Layer    Maximum-Head-Change  Column Row Layer    Maximum-Flux-Residual          L2-NORM 
          0                 1           2             4    6     1      -0.2024684255E-01       4    6    1        -0.1109150811E+01      0.2103206232E+01
          0                 2           2             4    6     1       0.1969460725E-02       4    6    1         0.1109143504E+00      0.2092280352E+00
          0                 3           2             4    6     1      -0.1341129001E-03       4    6    1        -0.7764014788E-02      0.1463500702E-01
          0                 4           1             4    6     1       0.5336485022E-05       4    6    1         0.3175486090E-03      0.5985540823E-03

    ------------------------------------------------
       NWT REQUIRED            4 OUTER ITERATIONS 
       AND A TOTAL OF          7 INNER ITERATIONS.
    ------------------------------------------------

 NO OUTPUT CONTROL FOR STRESS PERIOD   48   TIME STEP   30



 STREAM LISTING     PERIOD     48   STEP       30

 LAYER ROW COL. STREAM  RCH.  FLOW INTO     FLOW TO   FLOW OUT OF   OVRLND.     DIRECT     STREAM       STREAM     STREAM     STREAM   STREAMBED  STREAMBED
                SEG.NO.  NO.  STRM. RCH.    AQUIFER    STRM. RCH.    RUNOFF     PRECIP       ET          HEAD       DEPTH      WIDTH   CONDCTNC.   GRADIENT

   1    1    1     1     1    1.5750E+01  1.9239E-01   1.5557E+01  0.000E+00  0.000E+00  0.000E+00  1.09407E+03  1.025E+00  1.062E+01  4.780E-02  1.342E+00
   1    2    2     1     2    1.5557E+01  2.9659E-01   1.5261E+01  0.000E+00  0.000E+00  0.000E+00  1.08908E+03  1.020E+00  1.054E+01  7.378E-02  1.340E+00
   1    3    3     1     3    1.5261E+01  2.5163E-01   1.5009E+01  0.000E+00  0.000E+00  0.000E+00  1.08343E+03  1.015E+00  1.045E+01  6.268E-02  1.338E+00
   1    3    4     1     4    1.5009E+01  2.3063E-01   1.4778E+01  0.000E+00  0.000E+00  0.000E+00  1.07842E+03  1.010E+00  1.036E+01  5.751E-02  1.337E+00
   1    4    5     2     1    1.2778E+01  2.9653E-01   1.2482E+01  0.000E+00  0.000E+00  0.000E+00  1.07274E+03  8.017E-01  1.200E+01  7.800E-02  1.267E+00
   1    5    6     2     2    1.2482E+01  2.2750E-01   1.2254E+01  0.000E+00  0.000E+00  0.000E+00  1.06730E+03  7.916E-01  1.200E+01  6.000E-02  1.264E+00
   1    6    6     2     3    1.2254E+01  2.2697E-01   1.2027E+01  0.000E+00  0.000E+00  0.000E+00  1.06258E+03  7.829E-01  1.200E+01  6.000E-02  1.261E+00
   1    7    6     2     4    1.2027E+01  2.2644E-01   1.1801E+01  0.000E+00  0.000E+00  0.000E+00  1.05785E+03  7.741E-01  1.200E+01  6.000E-02  1.258E+00
   1    8    6     2     5    1.1801E+01  2.2591E-01   1.1575E+01  0.000E+00  0.000E+00  0.000E+00  1.05312E+03  7.652E-01  1.200E+01  6.000E-02  1.255E+00
   1    3    5     3     1    2.0000E+00  2.8252E-01   1.7175E+00  0.000E+00  0.000E+00  0.000E+00  1.07555E+03  1.909E+00  9.636E+00  7.227E-02  1.955E+00
   1    3    6     3     2    1.7175E+00  2.4905E-01   1.4684E+00  0.000E+00  0.000E+00  0.000E+00  1.07264E+03  1.727E+00  8.909E+00  6.682E-02  1.864E+00
   1    3    7     3     3    1.4684E+00  1.9718E-01   1.2712E+00  0.000E+00  0.000E+00  0.000E+00  1.06987E+03  1.555E+00  8.218E+00  5.547E-02  1.777E+00
   1    4    8     3     4    1.2712E+00  2.2567E-01   1.0456E+00  0.000E+00  0.000E+00  0.000E+00  1.06682E+03  1.364E+00  7.455E+00  6.709E-02  1.682E+00
   1    5    8     3     5    1.0456E+00  1.5790E-01   8.8768E-01  0.000E+00  0.000E+00  0.000E+00  1.06362E+03  1.164E+00  6.655E+00  4.991E-02  1.582E+00
   1    6    8     3     6    8.8768E-01  5.5980E-02   8.3170E-01  0.000E+00  0.000E+00  0.000E+00  1.06158E+03  1.036E+00  6.145E+00  1.844E-02  1.518E+00
   1    5   10     4     1    1.0000E+01  9.0919E-02   9.9091E+00  0.000E+00  0.000E+00  0.000E+00  1.07836E+03  6.368E-01  1.000E+01  2.500E-02  1.212E+00
   1    5    9     4     2    9.9091E+00  1.8158E-01   9.7275E+00  0.000E+00  0.000E+00  0.000E+00  1.07154E+03  6.315E-01  1.000E+01  5.000E-02  1.211E+00
   1    6    8     4     3    9.7275E+00  1.2689E-01   9.6006E+00  0.000E+00  0.000E+00  0.000E+00  1.06381E+03  6.256E-01  1.000E+01  3.500E-02  1.209E+00
   1    6    8     5     1    1.0432E+01  2.2686E-01   1.0205E+01  0.000E+00  0.000E+00  0.000E+00  1.05868E+03  6.790E-01  1.542E+01  6.166E-02  1.226E+00
   1    7    7     5     2    1.0205E+01  2.7894E-01   9.9265E+00  0.000E+00  0.000E+00  0.000E+00  1.05417E+03  6.732E-01  1.519E+01  7.594E-02  1.224E+00
   1    8    7     5     3    9.9265E+00  1.9221E-01   9.7343E+00  0.000E+00  0.000E+00  0.000E+00  1.04992E+03  6.676E-01  1.497E+01  5.241E-02  1.223E+00
   1    8    6     5     4    9.7343E+00  1.3577E-01   9.5985E+00  0.000E+00  0.000E+00  0.000E+00  1.04691E+03  6.637E-01  1.482E+01  3.706E-02  1.221E+00
   1    9    6     6     1    2.1173E+01  2.4608E-01   2.0927E+01  0.000E+00  0.000E+00  0.000E+00  1.04383E+03  1.101E+00  1.200E+01  6.000E-02  1.367E+00
   1   10    7     6     2    2.0927E+01  2.4562E-01   2.0682E+01  0.000E+00  0.000E+00  0.000E+00  1.03928E+03  1.094E+00  1.200E+01  6.000E-02  1.365E+00
   1   11    7     6     3    2.0682E+01  2.4515E-01   2.0437E+01  0.000E+00  0.000E+00  0.000E+00  1.03472E+03  1.086E+00  1.200E+01  6.000E-02  1.362E+00
   1   12    7     6     4    2.0437E+01  2.4468E-01   2.0192E+01  0.000E+00  0.000E+00  0.000E+00  1.03017E+03  1.078E+00  1.200E+01  6.000E-02  1.359E+00
   1   13    7     6     5    2.0192E+01  1.8928E-03   2.0190E+01  0.000E+00  0.000E+00  0.000E+00  1.02698E+03  1.074E+00  1.200E+01  2.400E-02  2.629E-02
   1   14    9     7     1    1.5000E+02  1.3570E+00   1.4864E+02  0.000E+00  0.000E+00  0.000E+00  1.03987E+03  2.288E+00  5.529E+01  5.593E-01  8.087E-01
   1   13    8     7     2    1.4864E+02  1.8935E+00   1.4675E+02  0.000E+00  0.000E+00  0.000E+00  1.03478E+03  2.279E+00  5.526E+01  6.148E-01  1.027E+00
   1   13    7     7     3    1.4675E+02  1.5551E+00   1.4519E+02  0.000E+00  0.000E+00  0.000E+00  1.02969E+03  2.270E+00  5.521E+01  5.584E-01  9.283E-01
   1   13    6     8     1    1.6538E+02  9.7778E-01   1.6441E+02  0.000E+00  0.000E+00  0.000E+00  1.02479E+03  2.919E+00  4.232E+01  4.313E-01  7.558E-01
   1   13    5     8     2    1.6441E+02  2.2825E-01   1.6418E+02  0.000E+00  0.000E+00  0.000E+00  1.01854E+03  2.915E+00  4.226E+01  4.307E-01  1.767E-01
   1   13    4     8     3    1.6418E+02 -2.2567E+00   1.6644E+02  0.000E+00  0.000E+00  0.000E+00  1.01230E+03  2.921E+00  4.236E+01  4.317E+00 -1.743E-01
   1   13    3     8     4    1.6644E+02 -3.5543E+00   1.6999E+02  0.000E+00  0.000E+00  0.000E+00  1.00607E+03  2.941E+00  4.264E+01  4.345E+00 -2.727E-01
   1   13    2     8     5    1.6999E+02 -2.5476E+00   1.7254E+02  0.000E+00  0.000E+00  0.000E+00  9.99835E+02  2.960E+00  4.293E+01  4.374E+00 -1.941E-01
   1   13    1     8     6    1.7254E+02 -1.9687E+00   1.7451E+02  0.000E+00  0.000E+00  0.000E+00  9.94850E+02  2.975E+00  4.314E+01  2.638E+00 -2.488E-01
   1    8    6     9     1    0.0000E+00  0.0000E+00   0.0000E+00  0.000E+00  0.000E+00  0.000E+00  1.07875E+03  0.000E+00  4.000E+00  0.000E+00  1.000E+00
   1    8    5     9     2    0.0000E+00  0.0000E+00   0.0000E+00  0.000E+00  0.000E+00  0.000E+00  1.07825E+03  0.000E+00  4.000E+00  0.000E+00  1.000E+00





UNSATURATED ZONE PACKAGE VOLUMETRIC BUDGET FOR  TIME STEP    30 STRESS PERIOD   48
  ------------------------------------------------------------------------------



     CUMULATIVE VOLUMES      L**3       RATES FOR THIS TIME STEP      L**3/T
     ------------------                 ------------------------

           IN:                                      IN:
           ---                                      ---
        INFILTRATION =  2054445240.8395          INFILTRATION =           0.8475

          OUT:                                     OUT:
          ----                                     ----
              UZF ET =  1705251352.8826                UZF ET =           0.7500
        UZF RECHARGE =   164965602.2598          UZF RECHARGE =           0.0336

            IN - OUT =   184228285.6971              IN - OUT =       6.3857E-02

          STORAGE:                                 STORAGE:
          --------                                 --------
      STORAGE CHANGE =   184229905.9824        STORAGE CHANGE =       6.3857E-02

 PERCENT DISCREPANCY IS DIFFERENCE BETWEEN IN-OUT MINUS CHANGE IN STORAGE
 DIVIDED BY THE AVERAGE OF IN AND OUT TIMES 100

 PERCENT DISCREPANCY =          -0.00     PERCENT DISCREPANCY =           0.00






1
  VOLUMETRIC BUDGET FOR AGRICULTURAL FIELDS AT  END OF TIME STEP   30, STRESS PERIOD  48
  ------------------------------------------------------------------------------

     CUMULATIVE VOLUMES      L**3       RATES FOR THIS TIME STEP      L**3/T
     ------------------                 ------------------------

           IN:                                      IN:
           ---                                      ---
               AG WELLS  =   780128896.0000                 AG WELLS  =           0.0000
      DIVERSION SEGMENTS =  1169474688.0000        DIVERSION SEGMENTS =           0.0000
           GW IRRIGATION =           0.0000             GW IRRIGATION =           0.0000
           SW IRRIGATION =           0.0000             SW IRRIGATION =           0.0000
        SYSTEM LOSSES GW =           0.0000          SYSTEM LOSSES GW =           0.0000
        SYSTEM LOSSES SW =           0.0000          SYSTEM LOSSES SW =           0.0000

                TOTAL IN =  1949603584.0000                  TOTAL IN =           0.0000

          OUT:                                     OUT:
          ----                                     ----
               AG WELLS  =           0.0000                 AG WELLS  =           0.0000
      DIVERSION SEGMENTS =           0.0000        DIVERSION SEGMENTS =           0.0000
           GW IRRIGATION =   780128896.0000             GW IRRIGATION =           0.0000
           SW IRRIGATION =  1169496192.0000             SW IRRIGATION =           0.0000
        SYSTEM LOSSES GW =           0.0000          SYSTEM LOSSES GW =           0.0000
        SYSTEM LOSSES SW =           0.0000          SYSTEM LOSSES SW =           0.0000

               TOTAL OUT =  1949625088.0000                 TOTAL OUT =           0.0000

                IN - OUT =      -21504.0000                  IN - OUT =           0.0000

     PERCENT DISCREPANCY =          -0.00         PERCENT DISCREPANCY =           0.00



1
  VOLUMETRIC BUDGET FOR ENTIRE MODEL AT END OF TIME STEP   30, STRESS PERIOD  48
  ------------------------------------------------------------------------------

     CUMULATIVE VOLUMES      L**3       RATES FOR THIS TIME STEP      L**3/T
     ------------------                 ------------------------

           IN:                                      IN:
           ---                                      ---
             STORAGE     =  1249142912.0000               STORAGE     =           5.1399
       CONSTANT HEAD     =           0.0000         CONSTANT HEAD     =           0.0000
     HEAD DEP BOUNDS     =    35402188.0000       HEAD DEP BOUNDS     =           0.2872
      STREAM LEAKAGE     =  1491493376.0000        STREAM LEAKAGE     =          11.5711
        UZF RECHARGE     =   164965616.0000          UZF RECHARGE     =       3.3643E-02
               GW ET     =           0.0000                 GW ET     =           0.0000
     SURFACE LEAKAGE     =           0.0000       SURFACE LEAKAGE     =           0.0000
           AG WELLS      =           0.0000             AG WELLS      =           0.0000

                TOTAL IN =  2941004032.0000                  TOTAL IN =          17.0318

          OUT:                                     OUT:
          ----                                     ----
             STORAGE     =   810993792.0000               STORAGE     =           6.4158
       CONSTANT HEAD     =           0.0000         CONSTANT HEAD     =           0.0000
     HEAD DEP BOUNDS     =    35947060.0000       HEAD DEP BOUNDS     =           0.2887
      STREAM LEAKAGE     =  1310992768.0000        STREAM LEAKAGE     =          10.3273
        UZF RECHARGE     =           0.0000          UZF RECHARGE     =           0.0000
               GW ET     =     2951485.0000                 GW ET     =           0.0000
     SURFACE LEAKAGE     =           0.0000       SURFACE LEAKAGE     =           0.0000
           AG WELLS      =   780128896.0000             AG WELLS      =           0.0000

               TOTAL OUT =  2941014016.0000                 TOTAL OUT =          17.0318

                IN - OUT =       -9984.0000                  IN - OUT =       9.5367E-06

     PERCENT DISCREPANCY =          -0.00         PERCENT DISCREPANCY =           0.00






         TIME SUMMARY AT END OF TIME STEP   30 IN STRESS PERIOD   48
                    SECONDS     MINUTES      HOURS       DAYS        YEARS
                    -----------------------------------------------------------
   TIME STEP LENGTH  87667.      1461.1      24.352      1.0147     2.77799E-03
 STRESS PERIOD TIME 2.63000E+06  43833.      730.56      30.440     8.33397E-02
         TOTAL TIME 1.23695E+08 2.06158E+06  34360.      1431.7      3.9197    
1
1
                            STRESS PERIOD NO.   49, LENGTH =   2630000.    
                            -----------------------------------------------

                              NUMBER OF TIME STEPS =    30

                               MULTIPLIER FOR DELT =     1.000

                            INITIAL TIME STEP SIZE =   87666.66    

 REUSING NON-PARAMETER GHB CELLS FROM LAST STRESS PERIOD

      2 GHB CELLS

 REUSING STREAM SEGMENT DATA FROM LAST STRESS PERIOD



            AREAL INFILTRATION RATE
 READING ON UNIT   19 WITH FORMAT: (FREE)              

            1           2           3           4           5           6           7           8           9          10
 ........................................................................................................................
   1   1.0000E-10  2.0000E-10   0.000       0.000       0.000       0.000       0.000       0.000       0.000       0.000    
   2   2.0000E-10  1.0000E-10  2.0000E-10   0.000       0.000      8.0000E-10  8.0000E-10  5.0000E-10   0.000       0.000    
   3    0.000      5.0000E-10  1.0000E-10  1.0000E-10  8.0000E-10  8.0000E-10  5.0000E-10  5.0000E-10   0.000       0.000    
   4   8.0000E-10  5.0000E-10  1.0000E-10  1.0000E-10  1.0000E-10  1.0000E-10  1.0000E-10  1.0000E-10  2.0000E-10   0.000    
   5   8.0000E-10  5.0000E-10  1.0000E-10  1.0000E-10  1.0000E-10  1.0000E-10  1.0000E-10  1.0000E-10  1.0000E-10  1.0000E-10
   6   8.0000E-10  5.0000E-10  5.0000E-10  2.0000E-10  2.0000E-10  1.0000E-10  1.0000E-10  1.0000E-10  1.0000E-10  5.0000E-10
   7   8.0000E-10  5.0000E-10  5.0000E-10  2.0000E-10  2.0000E-10  1.0000E-10  1.0000E-10  2.0000E-10  2.0000E-10   0.000    
   8    0.000      5.0000E-10  5.0000E-10  2.0000E-10  2.0000E-10  1.0000E-10  1.0000E-10  2.0000E-10  5.0000E-10   0.000    
   9    0.000      5.0000E-10  5.0000E-10  2.0000E-10  2.0000E-10  1.0000E-10  1.0000E-10  2.0000E-10  5.0000E-10   0.000    
  10    0.000      5.0000E-10  5.0000E-10  2.0000E-10  2.0000E-10  1.0000E-10  1.0000E-10  2.0000E-10  5.0000E-10  8.0000E-10
  11    0.000      1.0000E-10  1.0000E-10  1.0000E-10  1.0000E-10  1.0000E-10  1.0000E-10  2.0000E-10  5.0000E-10   0.000    
  12   1.0000E-10  1.0000E-10  1.0000E-10  1.0000E-10  1.0000E-10  1.0000E-10  1.0000E-10  1.0000E-10  2.0000E-10   0.000    
  13   1.0000E-10  1.0000E-10  2.0000E-10  2.0000E-10  2.0000E-10  2.0000E-10  2.0000E-10  1.0000E-10  1.0000E-10   0.000    
  14    0.000      2.0000E-10  5.0000E-10  5.0000E-10  5.0000E-10  5.0000E-10  5.0000E-10  2.0000E-10  1.0000E-10   0.000    
  15    0.000       0.000      8.0000E-10  8.0000E-10  8.0000E-10  8.0000E-10   0.000       0.000       0.000       0.000    

                  ET RATE =  5.000000E-10

 USING ET EXTINCTION DEPTH FROM PREVIOUS STRESS PERIOD. CURRENT PERIOD IS:      49

 USING EXTINCTION WATER CONTENT FROM PREVIOUS STRESS PERIOD. CURRENT PERIOD IS:      49

 USING AIR ENTRY PRESSURE FROM PREVIOUS STRESS PERIOD. CURRENT PERIOD IS:      49

 USING ROOT PRESSURE HEAD FROM PREVIOUS STRESS PERIOD. CURRENT PERIOD IS:      49

 USING ROOT ACTIVITY FROM PREVIOUS STRESS PERIOD. CURRENT PERIOD IS:      49

 PROCESSING AG STRESS PERIOD DATA

 READING AG STRESS PERIOD DATA

 READING IRRIGATION SEGMENT

 READING IRRIGATION WELL

 READING SUPPLEMENTAL WELL

 END PROCESSING AG STRESS PERIOD DATA OPTIONS
 
 SOLVING FOR HEAD 
                                                   Max.-Head-Change                         Max.-Flux-Residual
  Residual-Control   Outer-Iter.   Inner-Iter.     Column Row Layer    Maximum-Head-Change  Column Row Layer    Maximum-Flux-Residual          L2-NORM 
          0                 1           2             4    6     1      -0.1920573078E-01       4    6    1        -0.1052019690E+01      0.2028944800E+01
          0                 2           2             4    6     1       0.1868189961E-02       4    6    1         0.1052013181E+00      0.2018181700E+00
          0                 3           2             4    6     1      -0.1272167292E-03       4    6    1        -0.7364101602E-02      0.1411636410E-01
          0                 4           1             4    6     1       0.5062079999E-05       4    6    1         0.3011921308E-03      0.5773479010E-03

    ------------------------------------------------
       NWT REQUIRED            4 OUTER ITERATIONS 
       AND A TOTAL OF          7 INNER ITERATIONS.
    ------------------------------------------------

 NO OUTPUT CONTROL FOR STRESS PERIOD   49   TIME STEP    1
 
 SOLVING FOR HEAD 
                                                   Max.-Head-Change                         Max.-Flux-Residual
  Residual-Control   Outer-Iter.   Inner-Iter.     Column Row Layer    Maximum-Head-Change  Column Row Layer    Maximum-Flux-Residual          L2-NORM 
          0                 1           2             4    6     1      -0.1821950615E-01       4    6    1        -0.9979202305E+00      0.1958612326E+01
          0                 2           2             4    6     1       0.1772258099E-02       4    6    1         0.9979144311E-01      0.1947991656E+00
          0                 3           2             4    6     1      -0.1206841188E-03       4    6    1        -0.6985409509E-02      0.1362507887E-01
          0                 4           1             4    6     1       0.4802141219E-05       4    6    1         0.2857036013E-03      0.5572585886E-03

    ------------------------------------------------
       NWT REQUIRED            4 OUTER ITERATIONS 
       AND A TOTAL OF          7 INNER ITERATIONS.
    ------------------------------------------------

 NO OUTPUT CONTROL FOR STRESS PERIOD   49   TIME STEP    2
 
 SOLVING FOR HEAD 
                                                   Max.-Head-Change                         Max.-Flux-Residual
  Residual-Control   Outer-Iter.   Inner-Iter.     Column Row Layer    Maximum-Head-Change  Column Row Layer    Maximum-Flux-Residual          L2-NORM 
          0                 1           2             4    6     1      -0.1728509629E-01       4    6    1        -0.9466814495E+00      0.1891976874E+01
          0                 2           2             4    6     1       0.1681366298E-02       4    6    1         0.9466762820E-01      0.1881481770E+00
          0                 3           2             4    6     1      -0.1144947194E-03       4    6    1        -0.6626741729E-02      0.1315952867E-01
          0                 4           1             4    6     1       0.4555859565E-05       4    6    1         0.2710340957E-03      0.5382295064E-03

    ------------------------------------------------
       NWT REQUIRED            4 OUTER ITERATIONS 
       AND A TOTAL OF          7 INNER ITERATIONS.
    ------------------------------------------------

 NO OUTPUT CONTROL FOR STRESS PERIOD   49   TIME STEP    3
 
 SOLVING FOR HEAD 
                                                   Max.-Head-Change                         Max.-Flux-Residual
  Residual-Control   Outer-Iter.   Inner-Iter.     Column Row Layer    Maximum-Head-Change  Column Row Layer    Maximum-Flux-Residual          L2-NORM 
          0                 1           2             4    6     1      -0.1639936425E-01       4    6    1        -0.8981292462E+00      0.1828954476E+01
          0                 2           2             4    6     1       0.1595209429E-02       4    6    1         0.8981246414E-01      0.1818561950E+00
          0                 3           2             4    6     1      -0.1086277511E-03       4    6    1        -0.6286879554E-02      0.1271906937E-01
          0                 4           1             4    6     1       0.4322407501E-05       4    6    1         0.2571337122E-03      0.5202115888E-03

    ------------------------------------------------
       NWT REQUIRED            4 OUTER ITERATIONS 
       AND A TOTAL OF          7 INNER ITERATIONS.
    ------------------------------------------------

 NO OUTPUT CONTROL FOR STRESS PERIOD   49   TIME STEP    4
 
 SOLVING FOR HEAD 
                                                   Max.-Head-Change                         Max.-Flux-Residual
  Residual-Control   Outer-Iter.   Inner-Iter.     Column Row Layer    Maximum-Head-Change  Column Row Layer    Maximum-Flux-Residual          L2-NORM 
          0                 1           2             4    6     1      -0.1555938654E-01       4    6    1        -0.8521009707E+00      0.1769319662E+01
          0                 2           2             4    6     1       0.1513503126E-02       4    6    1         0.8520968676E-01      0.1759013592E+00
          0                 3           1             4    6     1      -0.1030639305E-03       4    6    1        -0.5964684527E-02      0.1230215424E-01
          0                 4           1             4    6     1       0.4101095412E-05       4    6    1         0.2439605612E-03      0.5031306189E-03

    ------------------------------------------------
       NWT REQUIRED            4 OUTER ITERATIONS 
       AND A TOTAL OF          6 INNER ITERATIONS.
    ------------------------------------------------

 NO OUTPUT CONTROL FOR STRESS PERIOD   49   TIME STEP    5
 
 SOLVING FOR HEAD 
                                                   Max.-Head-Change                         Max.-Flux-Residual
  Residual-Control   Outer-Iter.   Inner-Iter.     Column Row Layer    Maximum-Head-Change  Column Row Layer    Maximum-Flux-Residual          L2-NORM 
          0                 1           2             4    6     1      -0.1476269358E-01       4    6    1        -0.8084598364E+00      0.1712486905E+01
          0                 2           2             4    6     1       0.1436007177E-02       4    6    1         0.8084561807E-01      0.1702269011E+00
          0                 3           1             4    6     1      -0.9778674394E-04       4    6    1        -0.5659199177E-02      0.1190496710E-01

    ------------------------------------------------
       NWT REQUIRED            3 OUTER ITERATIONS 
       AND A TOTAL OF          5 INNER ITERATIONS.
    ------------------------------------------------

 NO OUTPUT CONTROL FOR STRESS PERIOD   49   TIME STEP    6
 
 SOLVING FOR HEAD 
                                                   Max.-Head-Change                         Max.-Flux-Residual
  Residual-Control   Outer-Iter.   Inner-Iter.     Column Row Layer    Maximum-Head-Change  Column Row Layer    Maximum-Flux-Residual          L2-NORM 
          0                 1           2             3    7     1       0.1418799738E-01       4    6    1        -0.7670505258E+00      0.1658529744E+01
          0                 2           2             3    7     1      -0.1380103342E-02       4    6    1         0.7670472693E-01      0.1648389570E+00
          0                 3           1             3    7     1       0.9398004228E-04       4    6    1        -0.5369336270E-02      0.1152783978E-01

    ------------------------------------------------
       NWT REQUIRED            3 OUTER ITERATIONS 
       AND A TOTAL OF          5 INNER ITERATIONS.
    ------------------------------------------------

 NO OUTPUT CONTROL FOR STRESS PERIOD   49   TIME STEP    7
 
 SOLVING FOR HEAD 
                                                   Max.-Head-Change                         Max.-Flux-Residual
  Residual-Control   Outer-Iter.   Inner-Iter.     Column Row Layer    Maximum-Head-Change  Column Row Layer    Maximum-Flux-Residual          L2-NORM 
          0                 1           2             3    7     1       0.1390799274E-01       4    6    1        -0.7277531801E+00      0.1607298602E+01
          0                 2           2             3    7     1      -0.1352866567E-02       4    6    1         0.7277502803E-01      0.1597225816E+00
          0                 3           1             3    7     1       0.9212531775E-04       4    6    1        -0.5094256903E-02      0.1116967160E-01

    ------------------------------------------------
       NWT REQUIRED            3 OUTER ITERATIONS 
       AND A TOTAL OF          5 INNER ITERATIONS.
    ------------------------------------------------

 NO OUTPUT CONTROL FOR STRESS PERIOD   49   TIME STEP    8
 
 SOLVING FOR HEAD 
                                                   Max.-Head-Change                         Max.-Flux-Residual
  Residual-Control   Outer-Iter.   Inner-Iter.     Column Row Layer    Maximum-Head-Change  Column Row Layer    Maximum-Flux-Residual          L2-NORM 
          0                 1           2             3    7     1       0.1363401037E-01       4    6    1        -0.6904576097E+00      0.1558639861E+01
          0                 2           2             3    7     1      -0.1326215595E-02       4    6    1         0.6904550281E-01      0.1548626016E+00
          0                 3           1             3    7     1       0.9031048521E-04       4    6    1        -0.4833189735E-02      0.1082951500E-01

    ------------------------------------------------
       NWT REQUIRED            3 OUTER ITERATIONS 
       AND A TOTAL OF          5 INNER ITERATIONS.
    ------------------------------------------------

 NO OUTPUT CONTROL FOR STRESS PERIOD   49   TIME STEP    9
 
 SOLVING FOR HEAD 
                                                   Max.-Head-Change                         Max.-Flux-Residual
  Residual-Control   Outer-Iter.   Inner-Iter.     Column Row Layer    Maximum-Head-Change  Column Row Layer    Maximum-Flux-Residual          L2-NORM 
          0                 1           2             3    7     1       0.1336598839E-01       4    6    1        -0.6550458705E+00      0.1512400901E+01
          0                 2           2             3    7     1      -0.1300144405E-02       4    6    1         0.6550435735E-01      0.1502438573E+00
          0                 3           1             3    7     1       0.8853513261E-04       4    6    1        -0.4585309158E-02      0.1050616863E-01

    ------------------------------------------------
       NWT REQUIRED            3 OUTER ITERATIONS 
       AND A TOTAL OF          5 INNER ITERATIONS.
    ------------------------------------------------

 NO OUTPUT CONTROL FOR STRESS PERIOD   49   TIME STEP   10
 
 SOLVING FOR HEAD 
                                                   Max.-Head-Change                         Max.-Flux-Residual
  Residual-Control   Outer-Iter.   Inner-Iter.     Column Row Layer    Maximum-Head-Change  Column Row Layer    Maximum-Flux-Residual          L2-NORM 
          0                 1           2             3    7     1       0.1310409683E-01       4    6    1        -0.6214076035E+00      0.1468446874E+01
          0                 2           2             3    7     1      -0.1274669537E-02       4    6    1         0.6214055610E-01      0.1458529252E+00
          0                 3           1             3    7     1       0.8680038853E-04       4    6    1        -0.4349842736E-02      0.1019884638E-01

    ------------------------------------------------
       NWT REQUIRED            3 OUTER ITERATIONS 
       AND A TOTAL OF          5 INNER ITERATIONS.
    ------------------------------------------------

 NO OUTPUT CONTROL FOR STRESS PERIOD   49   TIME STEP   11
 
 SOLVING FOR HEAD 
                                                   Max.-Head-Change                         Max.-Flux-Residual
  Residual-Control   Outer-Iter.   Inner-Iter.     Column Row Layer    Maximum-Head-Change  Column Row Layer    Maximum-Flux-Residual          L2-NORM 
          0                 1           2             3    7     1       0.1284776494E-01       4    6    1        -0.5894397334E+00      0.1426648739E+01
          0                 2           2             3    7     1      -0.1249735399E-02       4    6    1         0.5903577607E-01      0.1417040956E+00
          0                 3           1             3    7     1       0.8510247022E-04       4    6    1        -0.4132506738E-02      0.9908427802E-02

    ------------------------------------------------
       NWT REQUIRED            3 OUTER ITERATIONS 
       AND A TOTAL OF          5 INNER ITERATIONS.
    ------------------------------------------------

 NO OUTPUT CONTROL FOR STRESS PERIOD   49   TIME STEP   12
 
 SOLVING FOR HEAD 
                                                   Max.-Head-Change                         Max.-Flux-Residual
  Residual-Control   Outer-Iter.   Inner-Iter.     Column Row Layer    Maximum-Head-Change  Column Row Layer    Maximum-Flux-Residual          L2-NORM 
          0                 1           2             3    7     1       0.1259715815E-01       4    6    1        -0.5590538231E+00      0.1386902638E+01
          0                 2           2             3    7     1      -0.1225358303E-02       4    6    1         0.5590532747E-01      0.1377058725E+00
          0                 3           1             3    7     1       0.8344248034E-04       4    6    1        -0.3913375133E-02      0.9628531385E-02

    ------------------------------------------------
       NWT REQUIRED            3 OUTER ITERATIONS 
       AND A TOTAL OF          5 INNER ITERATIONS.
    ------------------------------------------------

 NO OUTPUT CONTROL FOR STRESS PERIOD   49   TIME STEP   13
 
 SOLVING FOR HEAD 
                                                   Max.-Head-Change                         Max.-Flux-Residual
  Residual-Control   Outer-Iter.   Inner-Iter.     Column Row Layer    Maximum-Head-Change  Column Row Layer    Maximum-Flux-Residual          L2-NORM 
          0                 1           2             3    7     1       0.1235243312E-01       4    6    1        -0.5295392591E+00      0.1348888991E+01
          0                 2           2             3    7     1      -0.1201553268E-02       4    6    1         0.5295388017E-01      0.1339073417E+00
          0                 3           1             3    7     1       0.8182144653E-04       4    6    1        -0.3706773645E-02      0.9362620468E-02

    ------------------------------------------------
       NWT REQUIRED            3 OUTER ITERATIONS 
       AND A TOTAL OF          5 INNER ITERATIONS.
    ------------------------------------------------

 NO OUTPUT CONTROL FOR STRESS PERIOD   49   TIME STEP   14
 
 SOLVING FOR HEAD 
                                                   Max.-Head-Change                         Max.-Flux-Residual
  Residual-Control   Outer-Iter.   Inner-Iter.     Column Row Layer    Maximum-Head-Change  Column Row Layer    Maximum-Flux-Residual          L2-NORM 
          0                 1           2             3    7     1       0.1211324490E-01       4    6    1        -0.5015200385E+00      0.1312732352E+01
          0                 2           2             3    7     1      -0.1178286813E-02       4    6    1         0.5015196612E-01      0.1302942360E+00
          0                 3           1             3    7     1       0.8023708701E-04       4    6    1        -0.3510639507E-02      0.9109714080E-02

    ------------------------------------------------
       NWT REQUIRED            3 OUTER ITERATIONS 
       AND A TOTAL OF          5 INNER ITERATIONS.
    ------------------------------------------------

 NO OUTPUT CONTROL FOR STRESS PERIOD   49   TIME STEP   15
 
 SOLVING FOR HEAD 
                                                   Max.-Head-Change                         Max.-Flux-Residual
  Residual-Control   Outer-Iter.   Inner-Iter.     Column Row Layer    Maximum-Head-Change  Column Row Layer    Maximum-Flux-Residual          L2-NORM 
          0                 1           2             3    7     1       0.1187949786E-01       4    6    1        -0.4748938164E+00      0.1278318166E+01
          0                 2           2             3    7     1      -0.1155549635E-02       4    6    1         0.4748935098E-01      0.1268549395E+00
          0                 3           1             3    7     1       0.7868877000E-04       4    6    1        -0.3324256292E-02      0.8868940599E-02

    ------------------------------------------------
       NWT REQUIRED            3 OUTER ITERATIONS 
       AND A TOTAL OF          5 INNER ITERATIONS.
    ------------------------------------------------

 NO OUTPUT CONTROL FOR STRESS PERIOD   49   TIME STEP   16
 
 SOLVING FOR HEAD 
                                                   Max.-Head-Change                         Max.-Flux-Residual
  Residual-Control   Outer-Iter.   Inner-Iter.     Column Row Layer    Maximum-Head-Change  Column Row Layer    Maximum-Flux-Residual          L2-NORM 
          0                 1           2             3    7     1       0.1165132942E-01       4    6    1        -0.4495946311E+00      0.1245555462E+01
          0                 2           2             3    7     1      -0.1133355100E-02       4    6    1         0.4495943866E-01      0.1235805600E+00
          0                 3           1             3    7     1       0.7717740513E-04       4    6    1        -0.3147162315E-02      0.8639719384E-02

    ------------------------------------------------
       NWT REQUIRED            3 OUTER ITERATIONS 
       AND A TOTAL OF          5 INNER ITERATIONS.
    ------------------------------------------------

 NO OUTPUT CONTROL FOR STRESS PERIOD   49   TIME STEP   17
 
 SOLVING FOR HEAD 
                                                   Max.-Head-Change                         Max.-Flux-Residual
  Residual-Control   Outer-Iter.   Inner-Iter.     Column Row Layer    Maximum-Head-Change  Column Row Layer    Maximum-Flux-Residual          L2-NORM 
          0                 1           2             3    7     1       0.1142863244E-01       4    6    1        -0.4255313860E+00      0.1214357230E+01
          0                 2           2             3    7     1      -0.1111692789E-02       4    6    1         0.4255311962E-01      0.1204624464E+00
          0                 3           1             3    7     1       0.7570228276E-04       4    6    1        -0.2978719838E-02      0.8421449753E-02

    ------------------------------------------------
       NWT REQUIRED            3 OUTER ITERATIONS 
       AND A TOTAL OF          5 INNER ITERATIONS.
    ------------------------------------------------

 NO OUTPUT CONTROL FOR STRESS PERIOD   49   TIME STEP   18
 
 SOLVING FOR HEAD 
                                                   Max.-Head-Change                         Max.-Flux-Residual
  Residual-Control   Outer-Iter.   Inner-Iter.     Column Row Layer    Maximum-Head-Change  Column Row Layer    Maximum-Flux-Residual          L2-NORM 
          0                 1           2             3    7     1       0.1121104992E-01       4    6    1        -0.4026476097E+00      0.1184633745E+01
          0                 2           2             3    7     1      -0.1090527973E-02       4    6    1         0.4026474678E-01      0.1174916710E+00
          0                 3           1             3    7     1       0.7426103767E-04       4    6    1        -0.2818533640E-02      0.8213475109E-02

    ------------------------------------------------
       NWT REQUIRED            3 OUTER ITERATIONS 
       AND A TOTAL OF          5 INNER ITERATIONS.
    ------------------------------------------------

 NO OUTPUT CONTROL FOR STRESS PERIOD   49   TIME STEP   19
 
 SOLVING FOR HEAD 
                                                   Max.-Head-Change                         Max.-Flux-Residual
  Residual-Control   Outer-Iter.   Inner-Iter.     Column Row Layer    Maximum-Head-Change  Column Row Layer    Maximum-Flux-Residual          L2-NORM 
          0                 1           2             3    7     1       0.1099871651E-01       4    6    1        -0.3808615290E+00      0.1156299010E+01
          0                 2           2             3    7     1      -0.1069873752E-02       4    6    1         0.3808614293E-01      0.1146596067E+00
          0                 3           1             3    7     1       0.7285456262E-04       4    6    1        -0.2666031251E-02      0.8015208343E-02

    ------------------------------------------------
       NWT REQUIRED            3 OUTER ITERATIONS 
       AND A TOTAL OF          5 INNER ITERATIONS.
    ------------------------------------------------

 NO OUTPUT CONTROL FOR STRESS PERIOD   49   TIME STEP   20
 
 SOLVING FOR HEAD 
                                                   Max.-Head-Change                         Max.-Flux-Residual
  Residual-Control   Outer-Iter.   Inner-Iter.     Column Row Layer    Maximum-Head-Change  Column Row Layer    Maximum-Flux-Residual          L2-NORM 
          0                 1           2             3    7     1       0.1079151515E-01       4    6    1        -0.3601403666E+00      0.1129301961E+01
          0                 2           2             3    7     1      -0.1049718739E-02       4    6    1         0.3601403041E-01      0.1119611660E+00
          0                 3           1             3    7     1       0.7148208177E-04       4    6    1        -0.2520983276E-02      0.7826309736E-02

    ------------------------------------------------
       NWT REQUIRED            3 OUTER ITERATIONS 
       AND A TOTAL OF          5 INNER ITERATIONS.
    ------------------------------------------------

 NO OUTPUT CONTROL FOR STRESS PERIOD   49   TIME STEP   21
 
 SOLVING FOR HEAD 
                                                   Max.-Head-Change                         Max.-Flux-Residual
  Residual-Control   Outer-Iter.   Inner-Iter.     Column Row Layer    Maximum-Head-Change  Column Row Layer    Maximum-Flux-Residual          L2-NORM 
          0                 1           2             3    7     1       0.1058933331E-01       4    6    1        -0.3404094303E+00      0.1103557382E+01
          0                 2           2             3    7     1      -0.1030051985E-02       4    6    1         0.3404093998E-01      0.1093878049E+00
          0                 3           1             3    7     1       0.7014284985E-04       4    6    1        -0.2382866864E-02      0.7646149508E-02

    ------------------------------------------------
       NWT REQUIRED            3 OUTER ITERATIONS 
       AND A TOTAL OF          5 INNER ITERATIONS.
    ------------------------------------------------

 NO OUTPUT CONTROL FOR STRESS PERIOD   49   TIME STEP   22
 
 SOLVING FOR HEAD 
                                                   Max.-Head-Change                         Max.-Flux-Residual
  Residual-Control   Outer-Iter.   Inner-Iter.     Column Row Layer    Maximum-Head-Change  Column Row Layer    Maximum-Flux-Residual          L2-NORM 
          0                 1           2             3    7     1       0.1039205274E-01       4    6    1        -0.3216135990E+00      0.1079001798E+01
          0                 2           2             3    7     1      -0.1010861991E-02       4    6    1         0.3216135967E-01      0.1069334305E+00
          0                 3           1             3    7     1       0.6883608311E-04       4    6    1        -0.2251296167E-02      0.7474328641E-02

    ------------------------------------------------
       NWT REQUIRED            3 OUTER ITERATIONS 
       AND A TOTAL OF          5 INNER ITERATIONS.
    ------------------------------------------------

 NO OUTPUT CONTROL FOR STRESS PERIOD   49   TIME STEP   23
 
 SOLVING FOR HEAD 
                                                   Max.-Head-Change                         Max.-Flux-Residual
  Residual-Control   Outer-Iter.   Inner-Iter.     Column Row Layer    Maximum-Head-Change  Column Row Layer    Maximum-Flux-Residual          L2-NORM 
          0                 1           2             3    7     1       0.1019955444E-01       4    6    1        -0.3037003926E+00      0.1055575292E+01
          0                 2           2             3    7     1      -0.9921371795E-03       4    6    1         0.3037004150E-01      0.1045918862E+00
          0                 3           1             3    7     1       0.6756099367E-04       4    6    1        -0.2125903805E-02      0.7310425341E-02

    ------------------------------------------------
       NWT REQUIRED            3 OUTER ITERATIONS 
       AND A TOTAL OF          5 INNER ITERATIONS.
    ------------------------------------------------

 NO OUTPUT CONTROL FOR STRESS PERIOD   49   TIME STEP   24
 
 SOLVING FOR HEAD 
                                                   Max.-Head-Change                         Max.-Flux-Residual
  Residual-Control   Outer-Iter.   Inner-Iter.     Column Row Layer    Maximum-Head-Change  Column Row Layer    Maximum-Flux-Residual          L2-NORM 
          0                 1           2             3    7     1       0.1001172558E-01       4    6    1        -0.2866360206E+00      0.1033216368E+01
          0                 2           2             3    7     1      -0.9738665770E-03       4    6    1         0.2866360640E-01      0.1023569582E+00
          0                 3           1             3    7     1       0.6631683435E-04       4    6    1        -0.2006453259E-02      0.7153955794E-02

    ------------------------------------------------
       NWT REQUIRED            3 OUTER ITERATIONS 
       AND A TOTAL OF          5 INNER ITERATIONS.
    ------------------------------------------------

 NO OUTPUT CONTROL FOR STRESS PERIOD   49   TIME STEP   25
 
 SOLVING FOR HEAD 
                                                   Max.-Head-Change                         Max.-Flux-Residual
  Residual-Control   Outer-Iter.   Inner-Iter.     Column Row Layer    Maximum-Head-Change  Column Row Layer    Maximum-Flux-Residual          L2-NORM 
          0                 1           2             3    7     1       0.9828448665E-02       6    7    1         0.2744998249E+00      0.1011875354E+01
          0                 2           2             3    7     1      -0.9560387520E-03       6    7    1        -0.2745006268E-01      0.1002238707E+00
          0                 3           1             3    7     1       0.6510282638E-04       6    7    1         0.1921504439E-02      0.7004853448E-02

    ------------------------------------------------
       NWT REQUIRED            3 OUTER ITERATIONS 
       AND A TOTAL OF          5 INNER ITERATIONS.
    ------------------------------------------------

 NO OUTPUT CONTROL FOR STRESS PERIOD   49   TIME STEP   26
 
 SOLVING FOR HEAD 
                                                   Max.-Head-Change                         Max.-Flux-Residual
  Residual-Control   Outer-Iter.   Inner-Iter.     Column Row Layer    Maximum-Head-Change  Column Row Layer    Maximum-Flux-Residual          L2-NORM 
          0                 1           2             3    7     1       0.9649609066E-02       3    3    1        -0.2665900465E+00      0.1105655871E+01
          0                 2           2             7   13     1      -0.1146128944E-02       7   13    1        -0.6224574477E-01      0.1265759094E+00
          0                 3           2             7   13     1       0.1114578073E-03       7   13    1         0.6219052575E-02      0.9883789251E-02
          0                 4           1             7   13     1      -0.7585883656E-05       7   13    1        -0.4348475352E-03      0.5358316543E-03

    ------------------------------------------------
       NWT REQUIRED            4 OUTER ITERATIONS 
       AND A TOTAL OF          7 INNER ITERATIONS.
    ------------------------------------------------

 NO OUTPUT CONTROL FOR STRESS PERIOD   49   TIME STEP   27
 
 SOLVING FOR HEAD 
                                                   Max.-Head-Change                         Max.-Flux-Residual
  Residual-Control   Outer-Iter.   Inner-Iter.     Column Row Layer    Maximum-Head-Change  Column Row Layer    Maximum-Flux-Residual          L2-NORM 
          0                 1           2             3    7     1       0.9475396495E-02       6    8    1         0.2615579346E+00      0.9729749607E+00
          0                 2           2             3    7     1      -0.9216964485E-03       6    8    1        -0.2615585028E-01      0.9669403399E-01
          0                 3           1             3    7     1       0.6276424275E-04       6    8    1         0.1833041623E-02      0.6782734354E-02

    ------------------------------------------------
       NWT REQUIRED            3 OUTER ITERATIONS 
       AND A TOTAL OF          5 INNER ITERATIONS.
    ------------------------------------------------

 NO OUTPUT CONTROL FOR STRESS PERIOD   49   TIME STEP   28
 
 SOLVING FOR HEAD 
                                                   Max.-Head-Change                         Max.-Flux-Residual
  Residual-Control   Outer-Iter.   Inner-Iter.     Column Row Layer    Maximum-Head-Change  Column Row Layer    Maximum-Flux-Residual          L2-NORM 
          0                 1           2             3    7     1       0.9305323794E-02       6    8    1         0.2572374231E+00      0.9544708205E+00
          0                 2           2             3    7     1      -0.9051530300E-03       6    8    1        -0.2572379723E-01      0.9449370762E-01
          0                 3           1             3    7     1       0.6163769952E-04       6    8    1         0.1802777138E-02      0.6603561122E-02

    ------------------------------------------------
       NWT REQUIRED            3 OUTER ITERATIONS 
       AND A TOTAL OF          5 INNER ITERATIONS.
    ------------------------------------------------

 NO OUTPUT CONTROL FOR STRESS PERIOD   49   TIME STEP   29
 
 SOLVING FOR HEAD 
                                                   Max.-Head-Change                         Max.-Flux-Residual
  Residual-Control   Outer-Iter.   Inner-Iter.     Column Row Layer    Maximum-Head-Change  Column Row Layer    Maximum-Flux-Residual          L2-NORM 
          0                 1           2             3    7     1       0.9139587204E-02       6    8    1         0.2530182297E+00      0.9366969717E+00
          0                 2           2             3    7     1      -0.8890314687E-03       6    8    1        -0.2530187603E-01      0.9273223107E-01
          0                 3           1             3    7     1       0.6053988191E-04       6    8    1         0.1773222350E-02      0.6480257752E-02

    ------------------------------------------------
       NWT REQUIRED            3 OUTER ITERATIONS 
       AND A TOTAL OF          5 INNER ITERATIONS.
    ------------------------------------------------

 NO OUTPUT CONTROL FOR STRESS PERIOD   49   TIME STEP   30



 STREAM LISTING     PERIOD     49   STEP       30

 LAYER ROW COL. STREAM  RCH.  FLOW INTO     FLOW TO   FLOW OUT OF   OVRLND.     DIRECT     STREAM       STREAM     STREAM     STREAM   STREAMBED  STREAMBED
                SEG.NO.  NO.  STRM. RCH.    AQUIFER    STRM. RCH.    RUNOFF     PRECIP       ET          HEAD       DEPTH      WIDTH   CONDCTNC.   GRADIENT

   1    1    1     1     1    1.4250E+01  1.8169E-01   1.4068E+01  0.000E+00  0.000E+00  0.000E+00  1.09404E+03  9.953E-01  1.011E+01  4.547E-02  1.332E+00
   1    2    2     1     2    1.4068E+01  2.7999E-01   1.3788E+01  0.000E+00  0.000E+00  0.000E+00  1.08905E+03  9.906E-01  1.002E+01  7.016E-02  1.330E+00
   1    3    3     1     3    1.3788E+01  2.3745E-01   1.3551E+01  0.000E+00  0.000E+00  0.000E+00  1.08340E+03  9.852E-01  9.930E+00  5.958E-02  1.328E+00
   1    3    4     1     4    1.3551E+01  2.1755E-01   1.3333E+01  0.000E+00  0.000E+00  0.000E+00  1.07839E+03  9.805E-01  9.848E+00  5.465E-02  1.327E+00
   1    4    5     2     1    1.1333E+01  2.9214E-01   1.1041E+01  0.000E+00  0.000E+00  0.000E+00  1.07268E+03  7.454E-01  1.200E+01  7.800E-02  1.248E+00
   1    5    6     2     2    1.1041E+01  2.2410E-01   1.0817E+01  0.000E+00  0.000E+00  0.000E+00  1.06724E+03  7.350E-01  1.200E+01  6.000E-02  1.245E+00
   1    6    6     2     3    1.0817E+01  2.2356E-01   1.0594E+01  0.000E+00  0.000E+00  0.000E+00  1.06252E+03  7.259E-01  1.200E+01  6.000E-02  1.242E+00
   1    7    6     2     4    1.0594E+01  2.2301E-01   1.0371E+01  0.000E+00  0.000E+00  0.000E+00  1.05779E+03  7.168E-01  1.200E+01  6.000E-02  1.239E+00
   1    8    6     2     5    1.0371E+01  2.2246E-01   1.0148E+01  0.000E+00  0.000E+00  0.000E+00  1.05307E+03  7.076E-01  1.200E+01  6.000E-02  1.236E+00
   1    3    5     3     1    2.0000E+00  2.8252E-01   1.7175E+00  0.000E+00  0.000E+00  0.000E+00  1.07555E+03  1.909E+00  9.636E+00  7.227E-02  1.955E+00
   1    3    6     3     2    1.7175E+00  2.4905E-01   1.4684E+00  0.000E+00  0.000E+00  0.000E+00  1.07264E+03  1.727E+00  8.909E+00  6.682E-02  1.864E+00
   1    3    7     3     3    1.4684E+00  1.9718E-01   1.2712E+00  0.000E+00  0.000E+00  0.000E+00  1.06987E+03  1.555E+00  8.218E+00  5.547E-02  1.777E+00
   1    4    8     3     4    1.2712E+00  2.2567E-01   1.0456E+00  0.000E+00  0.000E+00  0.000E+00  1.06682E+03  1.364E+00  7.455E+00  6.709E-02  1.682E+00
   1    5    8     3     5    1.0456E+00  1.5790E-01   8.8768E-01  0.000E+00  0.000E+00  0.000E+00  1.06362E+03  1.164E+00  6.655E+00  4.991E-02  1.582E+00
   1    6    8     3     6    8.8768E-01  5.5980E-02   8.3170E-01  0.000E+00  0.000E+00  0.000E+00  1.06158E+03  1.036E+00  6.145E+00  1.844E-02  1.518E+00
   1    5   10     4     1    1.0000E+01  9.0919E-02   9.9091E+00  0.000E+00  0.000E+00  0.000E+00  1.07836E+03  6.368E-01  1.000E+01  2.500E-02  1.212E+00
   1    5    9     4     2    9.9091E+00  1.8158E-01   9.7275E+00  0.000E+00  0.000E+00  0.000E+00  1.07154E+03  6.315E-01  1.000E+01  5.000E-02  1.211E+00
   1    6    8     4     3    9.7275E+00  1.2689E-01   9.6006E+00  0.000E+00  0.000E+00  0.000E+00  1.06381E+03  6.256E-01  1.000E+01  3.500E-02  1.209E+00
   1    6    8     5     1    1.0432E+01  2.2686E-01   1.0205E+01  0.000E+00  0.000E+00  0.000E+00  1.05868E+03  6.790E-01  1.542E+01  6.166E-02  1.226E+00
   1    7    7     5     2    1.0205E+01  2.7894E-01   9.9265E+00  0.000E+00  0.000E+00  0.000E+00  1.05417E+03  6.732E-01  1.519E+01  7.594E-02  1.224E+00
   1    8    7     5     3    9.9265E+00  1.9221E-01   9.7343E+00  0.000E+00  0.000E+00  0.000E+00  1.04992E+03  6.676E-01  1.497E+01  5.241E-02  1.223E+00
   1    8    6     5     4    9.7343E+00  1.3577E-01   9.5985E+00  0.000E+00  0.000E+00  0.000E+00  1.04691E+03  6.637E-01  1.482E+01  3.706E-02  1.221E+00
   1    9    6     6     1    1.9747E+01  2.4336E-01   1.9503E+01  0.000E+00  0.000E+00  0.000E+00  1.04378E+03  1.056E+00  1.200E+01  6.000E-02  1.352E+00
   1   10    7     6     2    1.9503E+01  2.4289E-01   1.9260E+01  0.000E+00  0.000E+00  0.000E+00  1.03923E+03  1.048E+00  1.200E+01  6.000E-02  1.349E+00
   1   11    7     6     3    1.9260E+01  2.4241E-01   1.9018E+01  0.000E+00  0.000E+00  0.000E+00  1.03468E+03  1.040E+00  1.200E+01  6.000E-02  1.347E+00
   1   12    7     6     4    1.9018E+01  2.4194E-01   1.8776E+01  0.000E+00  0.000E+00  0.000E+00  1.03012E+03  1.032E+00  1.200E+01  6.000E-02  1.344E+00
   1   13    7     6     5    1.8776E+01  9.8367E-04   1.8775E+01  0.000E+00  0.000E+00  0.000E+00  1.02694E+03  1.028E+00  1.200E+01  2.400E-02  1.366E-02
   1   14    9     7     1    1.5000E+02  1.3576E+00   1.4864E+02  0.000E+00  0.000E+00  0.000E+00  1.03987E+03  2.288E+00  5.529E+01  5.593E-01  8.091E-01
   1   13    8     7     2    1.4864E+02  1.8947E+00   1.4675E+02  0.000E+00  0.000E+00  0.000E+00  1.03478E+03  2.279E+00  5.526E+01  6.148E-01  1.027E+00
   1   13    7     7     3    1.4675E+02  1.5595E+00   1.4519E+02  0.000E+00  0.000E+00  0.000E+00  1.02969E+03  2.270E+00  5.521E+01  5.584E-01  9.309E-01
   1   13    6     8     1    1.6396E+02  9.7648E-01   1.6299E+02  0.000E+00  0.000E+00  0.000E+00  1.02478E+03  2.909E+00  4.218E+01  4.299E-01  7.572E-01
   1   13    5     8     2    1.6299E+02  2.2969E-01   1.6276E+02  0.000E+00  0.000E+00  0.000E+00  1.01853E+03  2.905E+00  4.212E+01  4.293E-01  1.784E-01
   1   13    4     8     3    1.6276E+02 -2.2444E+00   1.6500E+02  0.000E+00  0.000E+00  0.000E+00  1.01229E+03  2.912E+00  4.222E+01  4.303E+00 -1.739E-01
   1   13    3     8     4    1.6500E+02 -3.5490E+00   1.6855E+02  0.000E+00  0.000E+00  0.000E+00  1.00606E+03  2.931E+00  4.250E+01  4.331E+00 -2.731E-01
   1   13    2     8     5    1.6855E+02 -2.5509E+00   1.7110E+02  0.000E+00  0.000E+00  0.000E+00  9.99826E+02  2.951E+00  4.279E+01  4.361E+00 -1.950E-01
   1   13    1     8     6    1.7110E+02 -1.9765E+00   1.7308E+02  0.000E+00  0.000E+00  0.000E+00  9.94841E+02  2.966E+00  4.300E+01  2.629E+00 -2.506E-01
   1    8    6     9     1    0.0000E+00  0.0000E+00   0.0000E+00  0.000E+00  0.000E+00  0.000E+00  1.07875E+03  0.000E+00  4.000E+00  0.000E+00  1.000E+00
   1    8    5     9     2    0.0000E+00  0.0000E+00   0.0000E+00  0.000E+00  0.000E+00  0.000E+00  1.07825E+03  0.000E+00  4.000E+00  0.000E+00  1.000E+00





UNSATURATED ZONE PACKAGE VOLUMETRIC BUDGET FOR  TIME STEP    30 STRESS PERIOD   49
  ------------------------------------------------------------------------------



     CUMULATIVE VOLUMES      L**3       RATES FOR THIS TIME STEP      L**3/T
     ------------------                 ------------------------

           IN:                                      IN:
           ---                                      ---
        INFILTRATION =  2056674165.7123          INFILTRATION =           0.8475

          OUT:                                     OUT:
          ----                                     ----
              UZF ET =  1707223852.7589                UZF ET =           0.7500
        UZF RECHARGE =   165034278.2557          UZF RECHARGE =           0.0216

            IN - OUT =   184416034.6977              IN - OUT =       7.5861E-02

          STORAGE:                                 STORAGE:
          --------                                 --------
      STORAGE CHANGE =   184417655.0040        STORAGE CHANGE =       7.5861E-02

 PERCENT DISCREPANCY IS DIFFERENCE BETWEEN IN-OUT MINUS CHANGE IN STORAGE
 DIVIDED BY THE AVERAGE OF IN AND OUT TIMES 100

 PERCENT DISCREPANCY =          -0.00     PERCENT DISCREPANCY =           0.00






1
  VOLUMETRIC BUDGET FOR AGRICULTURAL FIELDS AT  END OF TIME STEP   30, STRESS PERIOD  49
  ------------------------------------------------------------------------------

     CUMULATIVE VOLUMES      L**3       RATES FOR THIS TIME STEP      L**3/T
     ------------------                 ------------------------

           IN:                                      IN:
           ---                                      ---
               AG WELLS  =   780128896.0000                 AG WELLS  =           0.0000
      DIVERSION SEGMENTS =  1169474688.0000        DIVERSION SEGMENTS =           0.0000
           GW IRRIGATION =           0.0000             GW IRRIGATION =           0.0000
           SW IRRIGATION =           0.0000             SW IRRIGATION =           0.0000
        SYSTEM LOSSES GW =           0.0000          SYSTEM LOSSES GW =           0.0000
        SYSTEM LOSSES SW =           0.0000          SYSTEM LOSSES SW =           0.0000

                TOTAL IN =  1949603584.0000                  TOTAL IN =           0.0000

          OUT:                                     OUT:
          ----                                     ----
               AG WELLS  =           0.0000                 AG WELLS  =           0.0000
      DIVERSION SEGMENTS =           0.0000        DIVERSION SEGMENTS =           0.0000
           GW IRRIGATION =   780128896.0000             GW IRRIGATION =           0.0000
           SW IRRIGATION =  1169496192.0000             SW IRRIGATION =           0.0000
        SYSTEM LOSSES GW =           0.0000          SYSTEM LOSSES GW =           0.0000
        SYSTEM LOSSES SW =           0.0000          SYSTEM LOSSES SW =           0.0000

               TOTAL OUT =  1949625088.0000                 TOTAL OUT =           0.0000

                IN - OUT =      -21504.0000                  IN - OUT =           0.0000

     PERCENT DISCREPANCY =          -0.00         PERCENT DISCREPANCY =           0.00



1
  VOLUMETRIC BUDGET FOR ENTIRE MODEL AT END OF TIME STEP   30, STRESS PERIOD  49
  ------------------------------------------------------------------------------

     CUMULATIVE VOLUMES      L**3       RATES FOR THIS TIME STEP      L**3/T
     ------------------                 ------------------------

           IN:                                      IN:
           ---                                      ---
             STORAGE     =  1258972416.0000               STORAGE     =           2.7513
       CONSTANT HEAD     =           0.0000         CONSTANT HEAD     =           0.0000
     HEAD DEP BOUNDS     =    36157584.0000       HEAD DEP BOUNDS     =           0.2872
      STREAM LEAKAGE     =  1521751680.0000        STREAM LEAKAGE     =          11.4929
        UZF RECHARGE     =   165034320.0000          UZF RECHARGE     =       2.1639E-02
               GW ET     =           0.0000                 GW ET     =           0.0000
     SURFACE LEAKAGE     =           0.0000       SURFACE LEAKAGE     =           0.0000
           AG WELLS      =           0.0000             AG WELLS      =           0.0000

                TOTAL IN =  2981915904.0000                  TOTAL IN =          14.5531

          OUT:                                     OUT:
          ----                                     ----
             STORAGE     =   823893120.0000               STORAGE     =           3.9441
       CONSTANT HEAD     =           0.0000         CONSTANT HEAD     =           0.0000
     HEAD DEP BOUNDS     =    36706128.0000       HEAD DEP BOUNDS     =           0.2885
      STREAM LEAKAGE     =  1338247168.0000        STREAM LEAKAGE     =          10.3208
        UZF RECHARGE     =           0.0000          UZF RECHARGE     =           0.0000
               GW ET     =     2951485.0000                 GW ET     =           0.0000
     SURFACE LEAKAGE     =           0.0000       SURFACE LEAKAGE     =           0.0000
           AG WELLS      =   780128896.0000             AG WELLS      =           0.0000

               TOTAL OUT =  2981926912.0000                 TOTAL OUT =          14.5534

                IN - OUT =      -11008.0000                  IN - OUT =      -2.8133E-04

     PERCENT DISCREPANCY =          -0.00         PERCENT DISCREPANCY =          -0.00






         TIME SUMMARY AT END OF TIME STEP   30 IN STRESS PERIOD   49
                    SECONDS     MINUTES      HOURS       DAYS        YEARS
                    -----------------------------------------------------------
   TIME STEP LENGTH  87667.      1461.1      24.352      1.0147     2.77799E-03
 STRESS PERIOD TIME 2.63000E+06  43833.      730.56      30.440     8.33397E-02
         TOTAL TIME 1.26325E+08 2.10542E+06  35090.      1462.1      4.0030    
1


 Run end date and time (yyyy/mm/dd hh:mm:ss): 2021/02/05 12:24:08
 Elapsed run time: 7.601 Seconds

