                                  MODFLOW-NWT-SWR1 
      U.S. GEOLOGICAL SURVEY MODULAR FINITE-DIFFERENCE GROUNDWATER-FLOW MODEL
                            VERSION 1.2.0 03/01/2020
                    BASED ON MODFLOW-2005 VERSION 1.12.00 02/03/2017

 LIST FILE: ./output/Agwater1_high.lst
                         UNIT    9

 OPENING ./input/Agwater1.ba6
 FILE TYPE:BAS6   UNIT   75   STATUS:OLD    
 FORMAT:FORMATTED              ACCESS:SEQUENTIAL          

 OPENING ./input/Agwater1.upw
 FILE TYPE:UPW   UNIT    7   STATUS:OLD    
 FORMAT:FORMATTED              ACCESS:SEQUENTIAL          

 OPENING ./input/Agwater1.dis
 FILE TYPE:DIS   UNIT    8   STATUS:OLD    
 FORMAT:FORMATTED              ACCESS:SEQUENTIAL          

 OPENING ./input/Agwater1.nwt
 FILE TYPE:NWT   UNIT   13   STATUS:OLD    
 FORMAT:FORMATTED              ACCESS:SEQUENTIAL          

 OPENING ./input/Agwater1.oc
 FILE TYPE:OC   UNIT   14   STATUS:OLD    
 FORMAT:FORMATTED              ACCESS:SEQUENTIAL          

 OPENING ./input/Agwater1.sfr
 FILE TYPE:SFR   UNIT   15   STATUS:OLD    
 FORMAT:FORMATTED              ACCESS:SEQUENTIAL          

 OPENING ./input/Agwater1.ghb
 FILE TYPE:GHB   UNIT   17   STATUS:OLD    
 FORMAT:FORMATTED              ACCESS:SEQUENTIAL          

 OPENING ./input/Agwater1.uzf
 FILE TYPE:UZF   UNIT   19   STATUS:OLD    
 FORMAT:FORMATTED              ACCESS:SEQUENTIAL          

 OPENING ./input/Agwater1.gag
 FILE TYPE:GAGE   UNIT   32   STATUS:OLD    
 FORMAT:FORMATTED              ACCESS:SEQUENTIAL          

 OPENING ./input/seg1_high.tab
 FILE TYPE:DATA   UNIT   55   STATUS:UNKNOWN
 FORMAT:FORMATTED              ACCESS:SEQUENTIAL          

 OPENING ./input/seg9.tab
 FILE TYPE:DATA   UNIT   56   STATUS:UNKNOWN
 FORMAT:FORMATTED              ACCESS:SEQUENTIAL          

 OPENING ./input/Agwater1.ag
 FILE TYPE:AG   UNIT   57   STATUS:OLD    
 FORMAT:FORMATTED              ACCESS:SEQUENTIAL          

 OPENING ./output/Agwater1_high.hed
 FILE TYPE:DATA   UNIT   62   STATUS:UNKNOWN
 FORMAT:FORMATTED              ACCESS:SEQUENTIAL          

 OPENING ./output/Agwater1gw_high.ts5
 FILE TYPE:DATA   UNIT  105   STATUS:UNKNOWN
 FORMAT:FORMATTED              ACCESS:SEQUENTIAL          

 OPENING ./output/Agwater1SW_high.ts9
 FILE TYPE:DATA   UNIT  107   STATUS:UNKNOWN
 FORMAT:FORMATTED              ACCESS:SEQUENTIAL          

 OPENING ./output/Agwater1SW_ET_high.ts9
 FILE TYPE:DATA   UNIT  108   STATUS:UNKNOWN
 FORMAT:FORMATTED              ACCESS:SEQUENTIAL          

 OPENING ./output/Agwater1_high.uzfot
 FILE TYPE:DATA(BINARY)   UNIT   61   STATUS:UNKNOWN
 FORMAT:BINARY                 ACCESS:SEQUENTIAL          

 OPENING ./output/Agwater1cbc_high.unf
 FILE TYPE:DATA(BINARY)   UNIT  102   STATUS:UNKNOWN
 FORMAT:BINARY                 ACCESS:SEQUENTIAL          

 OPENING ./output/Agwater1_high.uzf1
 FILE TYPE:DATA   UNIT   65   STATUS:UNKNOWN
 FORMAT:FORMATTED              ACCESS:SEQUENTIAL          

 OPENING ./output/Agwater1_high.uzf2
 FILE TYPE:DATA   UNIT   66   STATUS:UNKNOWN
 FORMAT:FORMATTED              ACCESS:SEQUENTIAL          

 OPENING ./output/Agwater1_high.uzf3
 FILE TYPE:DATA   UNIT   67   STATUS:UNKNOWN
 FORMAT:FORMATTED              ACCESS:SEQUENTIAL          

 OPENING ./output/Agwater1_high.uzf4
 FILE TYPE:DATA   UNIT   68   STATUS:UNKNOWN
 FORMAT:FORMATTED              ACCESS:SEQUENTIAL          

 OPENING ./output/Agwater1_high.flw
 FILE TYPE:DATA   UNIT   81   STATUS:UNKNOWN
 FORMAT:FORMATTED              ACCESS:SEQUENTIAL          

 OPENING ./output/Agwater1_high.sg1
 FILE TYPE:DATA   UNIT   83   STATUS:UNKNOWN
 FORMAT:FORMATTED              ACCESS:SEQUENTIAL          

 OPENING ./output/Agwater1_high.sg2
 FILE TYPE:DATA   UNIT   84   STATUS:UNKNOWN
 FORMAT:FORMATTED              ACCESS:SEQUENTIAL          

 OPENING ./output/Agwater1_high.sg3
 FILE TYPE:DATA   UNIT   85   STATUS:UNKNOWN
 FORMAT:FORMATTED              ACCESS:SEQUENTIAL          

 OPENING ./output/Agwater1_high.sg4
 FILE TYPE:DATA   UNIT   86   STATUS:UNKNOWN
 FORMAT:FORMATTED              ACCESS:SEQUENTIAL          

 OPENING ./output/Agwater1_high.sg5
 FILE TYPE:DATA   UNIT   87   STATUS:UNKNOWN
 FORMAT:FORMATTED              ACCESS:SEQUENTIAL          

 OPENING ./output/Agwater1_high.sg6
 FILE TYPE:DATA   UNIT   88   STATUS:UNKNOWN
 FORMAT:FORMATTED              ACCESS:SEQUENTIAL          

 OPENING ./output/Agwater1_high.sg7
 FILE TYPE:DATA   UNIT   89   STATUS:UNKNOWN
 FORMAT:FORMATTED              ACCESS:SEQUENTIAL          

 OPENING ./output/Agwater1_high.sg8
 FILE TYPE:DATA   UNIT   90   STATUS:UNKNOWN
 FORMAT:FORMATTED              ACCESS:SEQUENTIAL          

 OPENING ./output/Agwater1_high.sg9
 FILE TYPE:DATA   UNIT   91   STATUS:UNKNOWN
 FORMAT:FORMATTED              ACCESS:SEQUENTIAL          

 BAS -- BASIC PACKAGE, VERSION 1.1.4, 4/01/2018 INPUT READ FROM UNIT   75
 
 MODFLOW was compiled using mixed precision
 Precision of REAL variables:           6
 Precision of DOUBLE PRECISION variables:          15

 DISCRETIZATION INPUT DATA READ FROM UNIT    8
 #Test problem 2-- Discretization input
 #Example problem using the UZF1 Package
    1 LAYERS        15 ROWS        10 COLUMNS
   49 STRESS PERIOD(S) IN SIMULATION
 MODEL TIME UNIT IS SECONDS
 MODEL LENGTH UNIT IS FEET
  Confining bed flag for each layer:
   0

                     DELR =   5000.00    

                     DELC =   5000.00    



           TOP ELEVATION OF LAYER 1
 READING ON UNIT    8 WITH FORMAT: (10F7.0)            

            1           2           3           4           5           6           7           8           9          10
 ........................................................................................................................
   1    1105.       1105.       0.000       0.000       0.000       0.000       0.000       0.000       0.000       0.000    
   2    1105.       1095.       1105.       0.000       0.000       1100.       1100.       1110.       0.000       0.000    
   3    0.000       1100.       1085.       1080.       1078.       1076.       1073.       1090.       0.000       0.000    
   4    1110.       1100.       1090.       1085.       1076.       1080.       1080.       1070.       1100.       0.000    
   5    1110.       1100.       1085.       1080.       1078.       1074.       1077.       1066.       1075.       1080.    
   6    1105.       1095.       1080.       1077.       1073.       1069.       1070.       1063.       1085.       1095.    
   7    1105.       1090.       1075.       1072.       1070.       1065.       1065.       1069.       1090.       0.000    
   8    0.000       1080.       1070.       1068.       1063.       1060.       1063.       1067.       1090.       0.000    
   9    0.000       1075.       1065.       1062.       1058.       1052.       1055.       1065.       1090.       0.000    
  10    0.000       1070.       1060.       1055.       1046.       1046.       1044.       1060.       1088.       1100.    
  11    0.000       1055.       1050.       1045.       1041.       1042.       1040.       1050.       1075.       0.000    
  12    1027.       1028.       1028.       1032.       1032.       1033.       1032.       1040.       1060.       0.000    
  13    997.0       1004.       1008.       1014.       1020.       1027.       1032.       1038.       1050.       0.000    
  14    0.000       1030.       1040.       1045.       1050.       1050.       1050.       1050.       1044.       0.000    
  15    0.000       0.000       1080.       1080.       1080.       1080.       0.000       0.000       0.000       0.000    



             MODEL LAYER BOTTOM EL. FOR LAYER   1
 READING ON UNIT    8 WITH FORMAT: (10F7.0)            

            1           2           3           4           5           6           7           8           9          10
 ........................................................................................................................
   1    1000.       1000.       0.000       0.000       0.000       0.000       0.000       0.000       0.000       0.000    
   2    1000.       900.0       900.0       0.000       0.000       950.0       950.0       950.0       0.000       0.000    
   3    0.000       850.0       670.0       680.0       680.0       770.0       770.0       890.0       0.000       0.000    
   4    925.0       850.0       650.0       650.0       650.0       680.0       740.0       850.0       950.0       0.000    
   5    925.0       800.0       650.0       600.0       600.0       600.0       650.0       720.0       850.0       950.0    
   6    925.0       800.0       650.0       600.0       550.0       600.0       650.0       720.0       850.0       970.0    
   7    925.0       800.0       650.0       600.0       550.0       600.0       650.0       720.0       950.0       0.000    
   8    0.000       850.0       700.0       650.0       570.0       600.0       700.0       850.0       950.0       0.000    
   9    0.000       850.0       700.0       650.0       540.0       580.0       700.0       850.0       950.0       0.000    
  10    0.000       850.0       700.0       630.0       530.0       580.0       650.0       800.0       900.0       950.0    
  11    0.000       850.0       700.0       620.0       580.0       620.0       700.0       800.0       900.0       0.000    
  12    900.0       830.0       710.0       640.0       600.0       650.0       700.0       800.0       900.0       0.000    
  13    900.0       810.0       750.0       700.0       650.0       700.0       750.0       800.0       900.0       0.000    
  14    0.000       950.0       850.0       850.0       850.0       850.0       850.0       850.0       850.0       0.000    
  15    0.000       0.000       950.0       950.0       950.0       950.0       0.000       0.000       0.000       0.000    


 STRESS PERIOD     LENGTH       TIME STEPS     MULTIPLIER FOR DELT    SS FLAG
 ----------------------------------------------------------------------------
        1         86400.00          1                    1.000         SS
        2         2630000.         30                    1.000         TR
        3         2630000.         30                    1.000         TR
        4         2630000.         30                    1.000         TR
        5         2630000.         30                    1.000         TR
        6         2630000.         30                    1.000         TR
        7         2630000.         30                    1.000         TR
        8         2630000.         30                    1.000         TR
        9         2630000.         30                    1.000         TR
       10         2630000.         30                    1.000         TR
       11         2630000.         30                    1.000         TR
       12         2630000.         30                    1.000         TR
       13         2630000.         30                    1.000         TR
       14         2630000.         30                    1.000         TR
       15         2630000.         30                    1.000         TR
       16         2630000.         30                    1.000         TR
       17         2630000.         30                    1.000         TR
       18         2630000.         30                    1.000         TR
       19         2630000.         30                    1.000         TR
       20         2630000.         30                    1.000         TR
       21         2630000.         30                    1.000         TR
       22         2630000.         30                    1.000         TR
       23         2630000.         30                    1.000         TR
       24         2630000.         30                    1.000         TR
       25         2630000.         30                    1.000         TR
       26         2630000.         30                    1.000         TR
       27         2630000.         30                    1.000         TR
       28         2630000.         30                    1.000         TR
       29         2630000.         30                    1.000         TR
       30         2630000.         30                    1.000         TR
       31         2630000.         30                    1.000         TR
       32         2630000.         30                    1.000         TR
       33         2630000.         30                    1.000         TR
       34         2630000.         30                    1.000         TR
       35         2630000.         30                    1.000         TR
       36         2630000.         30                    1.000         TR
       37         2630000.         30                    1.000         TR
       38         2630000.         30                    1.000         TR
       39         2630000.         30                    1.000         TR
       40         2630000.         30                    1.000         TR
       41         2630000.         30                    1.000         TR
       42         2630000.         30                    1.000         TR
       43         2630000.         30                    1.000         TR
       44         2630000.         30                    1.000         TR
       45         2630000.         30                    1.000         TR
       46         2630000.         30                    1.000         TR
       47         2630000.         30                    1.000         TR
       48         2630000.         30                    1.000         TR
       49         2630000.         30                    1.000         TR

 COMBINED STEADY-STATE AND TRANSIENT SIMULATION



 
 #Test Simulation 2-- Example problem using the UZF1 Package                     
 #Modified from example Problem 1 of SFR1 documentation report                   
 THE FREE FORMAT OPTION HAS BEEN SELECTED



                     BOUNDARY ARRAY FOR LAYER   1
 READING ON UNIT   75 WITH FORMAT: (20I4)              

                1           2           3           4           5           6           7           8           9          10
 ............................................................................................................................
   1            1           1           0           0           0           0           0           0           0           0
   2            1           1           1           0           0           1           1           1           0           0
   3            0           1           1           1           1           1           1           1           0           0
   4            1           1           1           1           1           1           1           1           1           0
   5            1           1           1           1           1           1           1           1           1           1
   6            1           1           1           1           1           1           1           1           1           1
   7            1           1           1           1           1           1           1           1           1           0
   8            0           1           1           1           1           1           1           1           1           0
   9            0           1           1           1           1           1           1           1           1           0
  10            0           1           1           1           1           1           1           1           1           1
  11            0           1           1           1           1           1           1           1           1           0
  12            1           1           1           1           1           1           1           1           1           0
  13            1           1           1           1           1           1           1           1           1           0
  14            0           1           1           1           1           1           1           1           1           0
  15            0           0           1           1           1           1           0           0           0           0

 AQUIFER HEAD WILL BE SET TO   6999.0     AT ALL NO-FLOW NODES (IBOUND=0).



                       INITIAL HEAD FOR LAYER   1
 READING ON UNIT   75 WITH FORMAT: (10F8.0)            

            1           2           3           4           5           6           7           8           9          10
 ........................................................................................................................
   1    1093.       1089.       6999.       6999.       6999.       6999.       6999.       6999.       6999.       6999.    
   2    1090.       1087.       1081.       6999.       6999.       1072.       1071.       1071.       6999.       6999.    
   3    6999.       1079.       1078.       1074.       1072.       1071.       1069.       1068.       6999.       6999.    
   4    1069.       1071.       1070.       1067.       1065.       1064.       1064.       1066.       1066.       6999.    
   5    1065.       1064.       1063.       1062.       1061.       1061.       1060.       1062.       1066.       1068.    
   6    1060.       1058.       1057.       1056.       1056.       1057.       1057.       1059.       1062.       1066.    
   7    1056.       1053.       1052.       1051.       1051.       1052.       1053.       1055.       1056.       6999.    
   8    6999.       1046.       1046.       1046.       1046.       1046.       1048.       1050.       1050.       6999.    
   9    6999.       1039.       1039.       1039.       1040.       1041.       1042.       1043.       1044.       6999.    
  10    6999.       1031.       1032.       1033.       1034.       1035.       1037.       1038.       1039.       1042.    
  11    6999.       1021.       1023.       1027.       1029.       1030.       1032.       1034.       1036.       6999.    
  12    1001.       1009.       1015.       1020.       1023.       1026.       1029.       1030.       1034.       6999.    
  13    994.5      1000.0       1007.       1013.       1019.       1024.       1029.       1034.       1036.       6999.    
  14    6999.       1004.       1009.       1014.       1019.       1024.       1029.       1035.       1039.       6999.    
  15    6999.       6999.       1012.       1015.       1019.       1022.       6999.       6999.       6999.       6999.    

 OUTPUT CONTROL IS SPECIFIED ONLY AT TIME STEPS FOR WHICH OUTPUT IS DESIRED
 HEADS WILL BE SAVED WITH FORMAT: (10F10.3)           
 SAVED HEADS WILL BE LABELED
 COMPACT CELL-BY-CELL BUDGET FILES WILL BE WRITTEN
 HEAD PRINT FORMAT CODE IS   4    DRAWDOWN PRINT FORMAT CODE IS   0
 HEADS WILL BE SAVED ON UNIT   62    DRAWDOWNS WILL BE SAVED ON UNIT    0
 # NWT Input File
 # Test Problem 3 for MODFLOW-NWT
 #HEADTOL  FLUXTOL MAXITEROUT THICKFACT LINMETH IPRNWT IBOTAV OPTIONS DBDREDUCE DBDINCREASE DBDGAMMA MOMFACT BACKFLAG MAXBACKITER BACKTOL BACKREDUCE

 NWT1 -- Newton Solver, VERSION 1.1.4, 4/01/2018
         INPUT READ FROM UNIT 13

 SPECIFIED OPTION:
 SOLVER INPUT VALUES ARE SPECIFIED BY USER
 ***XMD linear solver will be used***
 
   CONVERGENCE CRITERION OF   0.100000E-03 FOR HEAD SOLUTION
   AND A TOLERANCE OF   0.100000E+01 FOR FLOW SOLUTION AND 
   A MAXIMUM OF   500 OUTER ITERATIONS. 


   D-B-D REDUCTION FACTOR OF    0.970000E+00 AND 
   A D-B-D INCREASE FACTOR OF    0.100000E-04 AND 
   A D-B-D RELAXATION OF    0.000000E+00 AND 
   A MOMENTUM FACTOR OF    0.100000E+00 .


 ***BACKTRACKING IS INACTIVE***
 XMD -- LINEAR SOLUTION BY XMD PACKAGE VERSION 1.30
     BY MOTOMU IBARAKI, OHIO STATE UNIVERSITY, COLOMBUS, OH
                 INPUT READ FROM UNIT 13
 ACCELERATION METHOD                    (IACL) =         1
 NODE ORDERING FLAG                   (NORDER) =         0
 LEVEL OF FILL                         (LEVEL) =         7
 MAXIMUM NUMBER OF ORTHOGONALIZATIONS  (NORTH) =         7
 INDEX FOR USING REDUCED SYSTEM      (IREDSYS) =         1
 RESID. REDUCTION CONVERGE CRITERION  (RRCTOL) =  0.000000E+00
 INDEX FOR USING DROP TOLERANCE     (IDROPTOL) =         1
 DROP TOLERANCE VALUE                  (EPSRN) =  0.500000E-02
 CONVERGENCE CRITERIA OF           (HCLOSEXMD) =  0.100000E-03
 MAX. NUMBER OF LINEAR ITERATIONS  (MXITERXMD) =        50


 UPW1 -- UPSTREAM WEIGHTING FLOW PACKAGE, VERSION 1.1.4, 4/01/2018
         INPUT READ FROM UNIT  7

 #Layer-Property Flow Package input for test simulation 2
 CELL-BY-CELL FLOWS WILL BE SAVED ON UNIT  102
 No named parameters

   LAYER FLAGS:
 LAYER       LAYTYP          LAYAVG    CHANI           LAYVKA           LAYWET
 ---------------------------------------------------------------------------
    1             1             0     1.000E+00             0             0

   INTERPRETATION OF LAYER FLAGS:
                        INTERBLOCK     HORIZONTAL    DATA IN
         LAYER TYPE   TRANSMISSIVITY   ANISOTROPY   ARRAY VKA   WETTABILITY
 LAYER   (LAYTYP)        (LAYAVG)      (CHANI)     (LAYVKA)       (LAYWET)
 ---------------------------------------------------------------------------
    1   CONVERTIBLE      HARMONIC     1.000E+00    VERTICAL K  NON-WETTABLE



              HYD. COND. ALONG ROWS FOR LAYER   1
 READING ON UNIT    7 WITH FORMAT: (10F5.0)            

            1           2           3           4           5           6           7           8           9          10
 ........................................................................................................................
   1   2.0000E-03  2.0000E-03   0.000       0.000       0.000       0.000       0.000       0.000       0.000       0.000    
   2   4.0000E-04  2.0000E-03  2.0000E-03   0.000       0.000      4.0000E-04  4.0000E-04  4.0000E-04   0.000       0.000    
   3    0.000      4.0000E-04  2.0000E-03  2.0000E-03  4.0000E-04  4.0000E-04  4.0000E-04  4.0000E-04   0.000       0.000    
   4   4.0000E-04  4.0000E-04  4.0000E-04  2.0000E-03  2.0000E-03  2.0000E-03  4.0000E-04  4.0000E-04  4.0000E-04   0.000    
   5   4.0000E-04  4.0000E-04  4.0000E-04  2.0000E-03  2.0000E-03  2.0000E-03  2.0000E-03  2.0000E-03  2.0000E-03  2.0000E-03
   6   4.0000E-04  4.0000E-04  4.0000E-04  2.0000E-03  2.0000E-03  2.0000E-03  2.0000E-03  2.0000E-03  4.0000E-04  4.0000E-04
   7   4.0000E-04  4.0000E-04  4.0000E-04  2.0000E-03  2.0000E-03  2.0000E-03  2.0000E-03  2.0000E-03  4.0000E-04   0.000    
   8    0.000      4.0000E-04  4.0000E-04  2.0000E-03  2.0000E-03  2.0000E-03  2.0000E-03  4.0000E-04  4.0000E-04   0.000    
   9    0.000      4.0000E-04  4.0000E-04  2.0000E-03  2.0000E-03  2.0000E-03  2.0000E-03  4.0000E-04  4.0000E-04   0.000    
  10    0.000      4.0000E-04  4.0000E-04  2.0000E-03  2.0000E-03  2.0000E-03  2.0000E-03  4.0000E-04  4.0000E-04  4.0000E-04
  11    0.000      4.0000E-04  4.0000E-04  2.0000E-03  2.0000E-03  2.0000E-03  2.0000E-03  4.0000E-04  4.0000E-04   0.000    
  12   4.0000E-04  4.0000E-04  2.0000E-03  2.0000E-03  2.0000E-03  2.0000E-03  2.0000E-03  4.0000E-04  4.0000E-04   0.000    
  13   2.0000E-03  2.0000E-03  2.0000E-03  2.0000E-03  2.0000E-03  2.0000E-03  2.0000E-03  2.0000E-03  2.0000E-03   0.000    
  14    0.000      4.0000E-04  4.0000E-04  4.0000E-04  4.0000E-04  4.0000E-04  4.0000E-04  4.0000E-04  2.0000E-03   0.000    
  15    0.000       0.000      4.0000E-04  4.0000E-04  4.0000E-04  4.0000E-04   0.000       0.000       0.000       0.000    

      VERTICAL HYD. COND. =  1.000000E-06 FOR LAYER   1

         SPECIFIC STORAGE =  1.000000E-06 FOR LAYER   1



                     SPECIFIC YIELD FOR LAYER   1
 READING ON UNIT    7 WITH FORMAT: (10F5.0)            

            1           2           3           4           5           6           7           8           9          10
 ........................................................................................................................
   1   0.2000      0.2000       0.000       0.000       0.000       0.000       0.000       0.000       0.000       0.000    
   2   0.1000      0.2000      0.2000       0.000       0.000      0.1000      0.1000      0.1000       0.000       0.000    
   3    0.000      0.1000      0.2000      0.2000      0.1000      0.1000      0.1000      0.1000       0.000       0.000    
   4   0.1000      0.1000      0.1000      0.2000      0.2000      0.2000      0.1000      0.1000      0.1000       0.000    
   5   0.1000      0.1000      0.1000      0.2000      0.2000      0.2000      0.2000      0.2000      0.2000      0.2000    
   6   0.1000      0.1000      0.1000      0.2000      0.2000      0.2000      0.2000      0.2000      0.1000      0.1000    
   7   0.1000      0.1000      0.1000      0.2000      0.2000      0.2000      0.2000      0.2000      0.1000       0.000    
   8    0.000      0.1000      0.1000      0.2000      0.2000      0.2000      0.2000      0.1000      0.1000       0.000    
   9    0.000      0.1000      0.1000      0.2000      0.2000      0.2000      0.2000      0.1000      0.1000       0.000    
  10    0.000      0.1000      0.1000      0.2000      0.2000      0.2000      0.2000      0.1000      0.1000      0.1000    
  11    0.000      0.1000      0.1000      0.2000      0.2000      0.2000      0.2000      0.1000      0.1000       0.000    
  12   0.1000      0.1000      0.2000      0.2000      0.2000      0.2000      0.2000      0.1000      0.1000       0.000    
  13   0.2000      0.2000      0.2000      0.2000      0.2000      0.2000      0.2000      0.2000      0.2000       0.000    
  14    0.000      0.1000      0.1000      0.1000      0.1000      0.1000      0.1000      0.1000      0.2000       0.000    
  15    0.000       0.000      0.1000      0.1000      0.1000      0.1000       0.000       0.000       0.000       0.000    

 GHB -- GENERAL-HEAD BOUNDARY PACKAGE, VERSION 7, 5/2/2005
         INPUT READ FROM UNIT   17
 No named parameters
 MAXIMUM OF      2 ACTIVE GHB CELLS AT ONE TIME
 CELL-BY-CELL FLOWS WILL BE PRINTED WHEN ICBCFL NOT 0


     0 GHB parameters

 SFR7 -- STREAMFLOW ROUTING PACKAGE, VERSION 1.0.5, 2012-04-05
         INPUT READ FROM UNIT  15
 #SFR2 Package input for Testing supplimental pumping and irrigation
 No named parameters

 PROCESSING SFR2 OPTIONS
 
          2 Specified inflow files will be read with a maximum of       1446 row entries per file
 
Stream loss will be calculated as a factor of the streambed hydraulic conductivity. Multiplication factor is equal to     0.1000000015E+00

 END PROCESSING SFR2 OPTIONS
 


 NUMBER OF STREAM REACHES IS   38

 NUMBER OF STREAM SEGMENTS IS    9

 NUMBER OF STREAM PARAMETERS IS    0

 NUMBER OF STREAM SEGMENTS DEFINED USING PARAMETERS IS              0

 MAXIMUM ERROR FOR STREAM LEAKAGE RATES IS  1.00E-06

 CONSTANT FOR MANNINGS EQUATION IS  1.4860E+00



 STREAM OUTPUT WILL BE WRITTEN TO FILE ON UNIT   81


   STREAM NETWORK DESCRIPTION: 

   LAYER    ROW    COL   SEGMENT   REACH     LENGTH
                          NUMBER   NUMBER    IN CELL        
   --------------------------------------------------
      1      1      1       1        1    4.5000E+03
      1      2      2       1        2    7.0000E+03
      1      3      3       1        3    6.0000E+03
      1      3      4       1        4    5.5500E+03
      1      4      5       2        1    6.5000E+03
      1      5      6       2        2    5.0000E+03
      1      6      6       2        3    5.0000E+03
      1      7      6       2        4    5.0000E+03
      1      8      6       2        5    5.0000E+03
      1      3      5       3        1    5.0000E+03
      1      3      6       3        2    5.0000E+03
      1      3      7       3        3    4.5000E+03
      1      4      8       3        4    6.0000E+03
      1      5      8       3        5    5.0000E+03
      1      6      8       3        6    2.0000E+03
      1      5     10       4        1    2.5000E+03
      1      5      9       4        2    5.0000E+03
      1      6      8       4        3    3.5000E+03
      1      6      8       5        1    4.0000E+03
      1      7      7       5        2    5.0000E+03
      1      8      7       5        3    3.5000E+03
      1      8      6       5        4    2.5000E+03
      1      9      6       6        1    5.0000E+03
      1     10      7       6        2    5.0000E+03
      1     11      7       6        3    5.0000E+03
      1     12      7       6        4    5.0000E+03
      1     13      7       6        5    2.0000E+03
      1     14      9       7        1    5.0000E+03
      1     13      8       7        2    5.5000E+03
      1     13      7       7        3    5.0000E+03
      1     13      6       8        1    5.0000E+03
      1     13      5       8        2    5.0000E+03
      1     13      4       8        3    5.0000E+03
      1     13      3       8        4    5.0000E+03
      1     13      2       8        5    5.0000E+03
      1     13      1       8        6    3.0000E+03
      1      8      6       9        1    3.0000E+03
      1      8      5       9        2    3.0000E+03




 UZF1 -- UNSATURATED FLOW PACKAGE, VERSION 1.5, 09/10/2019
         INPUT READ FROM UNIT 19
 #UZF Package input for test simulation 2
 No named parameters

 PROCESSING UZF OPTIONS
 
 
 INITIAL WATER CONTENT (THTI) WILL BE 
READ FOR THE FIRST SS OR TR STRESS PERIOD
 
 
 RESIDUAL WATER CONTENT (THTR) WILL BE 
READ AND USED FOR THE FIRST TRANSIENT STRESS 
PERIOD
 
 
AIR ENTRY PRESSURE AND ROOT PRESSURE WILL BE 
SPECIFIED BY USER AND UZ ET WILL BE SIMULATED 
AS PRESSURE-HEAD DEPENDENT
 
 
INFILTRATION WILL BE REJECTED USING 
LAND SURFACE K
 
 
HYDRAULIC CONDUCTIVITY OF LAND SURFACE 
WILL BE READ
 

 END PROCESSING UZF OPTIONS



            AREAL EXTENT OF UZ FLOW
 READING ON UNIT   19 WITH FORMAT: (20I4)              

                1           2           3           4           5           6           7           8           9          10
 ............................................................................................................................
   1            1           1           0           0           0           0           0           0           0           0
   2            1           1           1           0           0           1           1           1           0           0
   3            0           1           1           1           1           1           1           1           0           0
   4            1           1           1           1           1           1           1           1           1           0
   5            1           1           1           1           1           1           1           1           1           1
   6            1           1           1           1           1           1           1           1           1           1
   7            1           1           1           1           1           1           1           1           1           0
   8            0           1           1           1           1           1           1           1           1           0
   9            0           1           1           1           1           1           1           1           1           0
  10            0           1           1           1           1           1           1           1           1           1
  11            0           1           1           1           1           1           1           1           1           0
  12            1           1           1           1           1           1           1           1           1           0
  13            1           1           1           1           1           1           1           1           1           0
  14            0           1           1           1           1           1           1           1           1           0
  15            0           0           1           1           1           1           0           0           0           0
 OPTION 1 -- RECHARGE IN UZF TO TOP LAYER ONLY 



            ROUTING OVERLAND RUNOFF
 READING ON UNIT   19 WITH FORMAT: (20I4)              

                1           2           3           4           5           6           7           8           9          10
 ............................................................................................................................
   1            1           1           0           0           0           0           0           0           0           0
   2            1           1           1           0           0           3           3           3           0           0
   3            0           1           1           1           3           3           3           3           0           0
   4            8           8           2           2           2           2           2           3           3           0
   5            8           8           8           8           2           2           2           3           4           4
   6            8           8           8           8           8           2           2           4           4           4
   7            8           8           8           8           8           2           5           5           5           0
   8            0           8           8           8           8           2           5           5           5           0
   9            0           8           8           8           8           6           6           6           6           0
  10            0           8           8           8           8           6           6           6           6           6
  11            0           8           8           8           8           8           6           6           7           0
  12            8           8           8           8           8           8           6           7           7           0
  13            8           8           8           8           8           8           7           7           7           0
  14            0           8           8           8           8           8           7           7           7           0
  15            0           0           8           8           8           8           0           0           0           0



               SATURATED VERTICAL K
 READING ON UNIT   19 WITH FORMAT: (10F4.0)            

            1           2           3           4           5           6           7           8           9          10
 ........................................................................................................................
   1   4.6000E-05  4.6000E-05   0.000       0.000       0.000       0.000       0.000       0.000       0.000       0.000    
   2   4.6000E-05  4.6000E-05  4.6000E-05   0.000       0.000      4.6000E-05  4.6000E-05  4.6000E-05   0.000       0.000    
   3    0.000      4.6000E-05  4.6000E-05  4.6000E-05  4.6000E-05  4.6000E-05  4.6000E-05  4.6000E-05   0.000       0.000    
   4   4.6000E-05  4.6000E-05  4.6000E-05  4.6000E-05  4.6000E-05  4.6000E-05  4.6000E-05  4.6000E-05  4.6000E-05   0.000    
   5   4.6000E-05  4.6000E-05  4.6000E-05  4.6000E-05  4.6000E-05  4.6000E-05  4.6000E-05  4.6000E-05  4.6000E-05  4.6000E-05
   6   4.6000E-05  4.6000E-05  4.6000E-05  4.6000E-05  4.6000E-05  4.6000E-05  4.6000E-05  4.6000E-05  4.6000E-05  4.6000E-05
   7   4.6000E-05  4.6000E-05  4.6000E-05  4.6000E-05  4.6000E-05  4.6000E-05  4.6000E-05  4.6000E-05  4.6000E-05   0.000    
   8    0.000      4.6000E-05  4.6000E-05  4.6000E-05  4.6000E-05  4.6000E-05  4.6000E-05  4.6000E-05  4.6000E-05   0.000    
   9    0.000      4.6000E-05  4.6000E-05  4.6000E-05  4.6000E-05  4.6000E-05  4.6000E-05  4.6000E-05  4.6000E-05   0.000    
  10    0.000      4.6000E-05  4.6000E-05  4.6000E-05  4.6000E-05  4.6000E-05  4.6000E-05  4.6000E-05  4.6000E-05  4.6000E-05
  11    0.000      4.6000E-05  4.6000E-05  4.6000E-05  4.6000E-05  4.6000E-05  4.6000E-05  4.6000E-05  4.6000E-05   0.000    
  12   4.6000E-05  4.6000E-05  4.6000E-05  4.6000E-05  4.6000E-05  4.6000E-05  4.6000E-05  4.6000E-05  4.6000E-05   0.000    
  13   4.6000E-05  4.6000E-05  4.6000E-05  4.6000E-05  4.6000E-05  4.6000E-05  4.6000E-05  4.6000E-05  4.6000E-05   0.000    
  14    0.000      4.6000E-05  4.6000E-05  4.6000E-05  4.6000E-05  4.6000E-05  4.6000E-05  4.6000E-05  4.6000E-05   0.000    
  15    0.000       0.000      4.6000E-05  4.6000E-05  4.6000E-05  4.6000E-05   0.000       0.000       0.000       0.000    



            LAND SURFACE VERTICAL K
 READING ON UNIT   19 WITH FORMAT: (10F4.0)            

            1           2           3           4           5           6           7           8           9          10
 ........................................................................................................................
   1   1.0000E-05  1.0000E-05   0.000       0.000       0.000       0.000       0.000       0.000       0.000       0.000    
   2   1.0000E-05  1.0000E-05  1.0000E-05   0.000       0.000      1.0000E-05  1.0000E-05  1.0000E-05   0.000       0.000    
   3    0.000      1.0000E-05  1.0000E-05  1.0000E-05  1.0000E-05  1.0000E-05  1.0000E-05  1.0000E-05   0.000       0.000    
   4   1.0000E-05  1.0000E-05  1.0000E-05  1.0000E-05  1.0000E-05  1.0000E-05  1.0000E-05  1.0000E-05  1.0000E-05   0.000    
   5   1.0000E-05  1.0000E-05  1.0000E-05  1.0000E-05  1.0000E-05  1.0000E-05  1.0000E-05  1.0000E-05  1.0000E-05  1.0000E-05
   6   1.0000E-05  1.0000E-05  1.0000E-05  1.0000E-05  1.0000E-05  1.0000E-05  1.0000E-05  1.0000E-05  1.0000E-05  1.0000E-05
   7   1.0000E-05  1.0000E-05  1.0000E-05  1.0000E-05  1.0000E-05  1.0000E-05  1.0000E-05  1.0000E-05  1.0000E-05   0.000    
   8    0.000      1.0000E-05  1.0000E-05  1.0000E-05  1.0000E-05  1.0000E-05  1.0000E-05  1.0000E-05  1.0000E-05   0.000    
   9    0.000      1.0000E-05  1.0000E-05  1.0000E-05  1.0000E-05  1.0000E-05  1.0000E-05  1.0000E-05  1.0000E-05   0.000    
  10    0.000      1.0000E-05  1.0000E-05  1.0000E-05  1.0000E-05  1.0000E-05  1.0000E-05  1.0000E-05  1.0000E-05  1.0000E-05
  11    0.000      1.0000E-05  1.0000E-05  1.0000E-05  1.0000E-05  1.0000E-05  1.0000E-05  1.0000E-05  1.0000E-05   0.000    
  12   1.0000E-05  1.0000E-05  1.0000E-05  1.0000E-05  1.0000E-05  1.0000E-05  1.0000E-05  1.0000E-05  1.0000E-05   0.000    
  13   1.0000E-05  1.0000E-05  1.0000E-05  1.0000E-05  1.0000E-05  1.0000E-05  1.0000E-05  1.0000E-05  1.0000E-05   0.000    
  14    0.000      1.0000E-05  1.0000E-05  1.0000E-05  1.0000E-05  1.0000E-05  1.0000E-05  1.0000E-05  1.0000E-05   0.000    
  15    0.000       0.000      1.0000E-05  1.0000E-05  1.0000E-05  1.0000E-05   0.000       0.000       0.000       0.000    

     BROOKS-COREY EPSILON =   7.50000    

  SATURATED WATER CONTENT =  0.380000    

   RESIDUAL WATER CONTENT =  0.200000    

    INITIAL WATER CONTENT =  0.200000    

UNSATURATED FLOW RESULTS WILL BE PRINTED TO SEPARATE FILES FOR SELECTED MODEL CELLS, AND TIME STEPS AS DEFINED BY OUTPUT CONTROL PACKAGE 

SELECTED MODEL CELLS ARE: 
 ROW NUMBER  COLUMN NUMBER  FORTRAN UNIT NUMBER  OUTPUT OPTION


       6             4                 65                 1
       6             5                 66                 2
       8             4                 67                 3
       0             0                 68                 4



   9 GAGING STATIONS WERE SPECIFIED.
     (Lakes are identified by a negative value of the Lake Number)
     RECORDS WILL BE WRITTEN TO SEPARATE OUTPUT FILES REPRESENTED BY FOLLOWING UNIT NUMBERS:

 Stream Gages:
  GAGE #   SEGMENT   REACH   UNIT   OUTTYPE
       1       1       4      83       1
       2       2       5      84       1
       3       3       5      85       1
       4       4       3      86       1
       5       5       4      87       4
       6       6       5      88       4
       7       7       3      89       4
       8       8       6      90       4
       9       9       1      91       5





 AG -- AG PACKAGE FOR NWT VERSION 1.1.3,  8/01/2017 INPUT READ FROM UNIT   57
 # AG options

 PROCESSING AG OPTIONS
 
 AGRICULTURAL DEMANDS WILL BE CALCULATED USING ET DEFICIT
 
 
 OPTION TO APPLY SURFACE WATER AS IRRIGATION IS ACTIVE. DIVERTED SURFACE WATER WILL BE APPLIED TO          1 CELLS/RHUS.
 
 
 OPTION TO PUMP SUPPLEMENTARY WATER FOR SURFACE DIVERSION SHORTFALL IS ACTIVATED.  A TOTAL OF             6 SUPPLEMENTAL WELLS ARE ACTIVE
 
 
 OPTION TO APPLY PUMPED WATER AS IRRIGATION IS ACTIVE. PUMPED IRRIGATION WATER WILL BE APPLIED TO          6 CELLS/RHUS.
 
 
 THE MAXIMUM NUMBER OF WELLS FOR SUPPLEMENTING DIVERSIONS OR APPLYING IRRIGATION IS          6 WELLS.
 
 
  UNFORMATTED CELL BY CELL RATES FOR SUP AND IRR WELLS WILL BE SAVED TO FILE UNIT NUMBER         -2
 
 
  UNFORMATTED CELL BY CELL RATES FOR SUP AND IRR WELLS WILL BE SAVED TO FILE UNIT NUMBER         -2
 
 
  UNFORMATTED CELL BY CELL RATES FOR SUP AND IRR WELLS WILL BE SAVED TO FILE UNIT NUMBER         -2
 
 
  UNFORMATTED CELL BY CELL RATES FOR SUP AND IRR WELLS WILL BE SAVED TO FILE UNIT NUMBER         -2
 
 
  GROUND WATER IRRIGATION, POTENTIAL AND ACTUAL ET WILL BE SAVED TO TIMES SERIES OUTPUT FILES.
 
 
  SURFACE WATER IRRIGATION, POTENTIAL AND ACTUAL ET WILL BE SAVED TO TIMES SERIES OUTPUT FILES.
 
 
  SURFACE WATER IRRIGATION, POTENTIAL AND ACTUAL ET WILL BE SAVED TO TIMES SERIES OUTPUT FILES.
 

 END PROCESSING AG OPTIONS
 # AG time series

 PROCESSING TIME SERIES

 FINISHED READING TIME SERIES
 A total number of          1 AG output time series files were activated for SURFACE WATER 
 A total number of          1 AG output time series files were activated for GROUNDWATER 
 A total number of          1 AG output time series files were activated for SURFACE WATER ET
 A total number of          0 AG output time series files were activated for GROUNDWATER ET
1
                            STRESS PERIOD NO.    1, LENGTH =   86400.00    
                            -----------------------------------------------

                              NUMBER OF TIME STEPS =     1

                               MULTIPLIER FOR DELT =     1.000

                            INITIAL TIME STEP SIZE =   86400.00    

 BOUND. NO. LAYER   ROW   COL     STAGE      CONDUCTANCE         
 ----------------------------------------------------------------
      1      1     13      1       988.0          0.3800E-01
      2      1     14      9       1045.          0.3800E-01

      2 GHB CELLS



 CLASSIFICATION & COUNT OF STREAM SEGMENTS BASED ON SOURCE OF INFLOW:

                HEADWATER     DIVERSION     RECEIVES TRIBUTARY FLOW
                ---------     ---------     -----------------------
                     3              2               4



                    INPUT DATA FOR EACH STREAM SEGMENT
 ---------------------------------------------------------------------------------------------

 SEGMENT    SEG.     INFLOW   OVERLAND   STREAM    STREAM   ICALC  OUTFLOW  DIVERSION PRIORITY
    NO.    LENGTH     RATE     RUNOFF      ET       PPT.    METH.  TO SEG.  FROM SEG.    NO.

      1  2.305E+04 2.500E+01 0.000E+00 0.000E+00 0.000E+00    4        2        0        0
      2  2.650E+04 0.000E+00 0.000E+00 0.000E+00 0.000E+00    1        6        0        0
      3  2.750E+04 2.000E+00 0.000E+00 0.000E+00 0.000E+00    0        5        1        0
      4  1.100E+04 1.000E+01 0.000E+00 0.000E+00 0.000E+00    1        5        0        0
      5  1.500E+04 0.000E+00 0.000E+00 0.000E+00 0.000E+00    3        6        0        0
      6  2.200E+04 0.000E+00 0.000E+00 0.000E+00 0.000E+00    1        8        0        0
      7  1.550E+04 1.500E+02 0.000E+00 0.000E+00 0.000E+00    2        8        0        0
      8  2.800E+04 0.000E+00 0.000E+00 0.000E+00 0.000E+00    2        0        0        0
      9  6.000E+03 0.000E+00 0.000E+00 0.000E+00 0.000E+00    1        0        2        0


         STREAMBED PROPERTIES AND STREAM DIMENSIONS

 SEGMENT     BED HYD. COND.      BED THICKNESS     ELEV.-TOP OF BED     WIDTH OF STREAM     DEPTH OF STREAM    STREAM ROUGHNESS
    No.     UPPER     LOWER     UPPER     LOWER     UPPER     LOWER     UPPER     LOWER     UPPER     LOWER   CHANNEL      BANK

     1  3.000E-05 3.000E-05 3.000E+00 3.000E+00 1.095E+03 1.075E+03
     2  3.000E-05 3.000E-05 3.000E+00 3.000E+00 1.075E+03 1.050E+03 1.200E+01 1.200E+01                     3.000E-02
     3  3.000E-05 3.000E-05 2.000E+00 2.000E+00 1.075E+03 1.060E+03 1.000E+01 6.000E+00 2.000E+00 1.000E+00
     4  3.000E-05 3.000E-05 3.000E+00 3.000E+00 1.080E+03 1.060E+03 1.000E+01 1.000E+01                     3.000E-02
     5  3.000E-05 3.000E-05 3.000E+00 3.000E+00 1.060E+03 1.045E+03
     6  3.000E-05 3.000E-05 3.000E+00 3.000E+00 1.045E+03 1.025E+03 1.200E+01 1.200E+01                     3.000E-02
     7  6.000E-05 6.000E-05 3.000E+00 3.000E+00 1.040E+03 1.025E+03                                         2.500E-02 4.500E-02
     8  6.000E-05 6.000E-05 3.000E+00 3.000E+00 1.025E+03 9.900E+02                                         2.500E-02 4.500E-02
     9  0.000E+00 0.000E+00 3.000E+00 3.000E+00 1.079E+03 1.078E+03 4.000E+00 4.000E+00                     3.000E-02

  EIGHT POINT CROSS-SECTION DATA FOR SEGMENTS WITH ICALC = 2
    X VALUES X VALUES START FROM LEFT SIDE LOOKING DOWNSTREAM

     SEGMENT NO.        X1        X2        X3        X4        X5        X6        X7        X8
            7      0.000E+00 1.000E+01 8.000E+01 1.000E+02 1.500E+02 1.700E+02 2.400E+02 2.500E+02
            8      0.000E+00 1.000E+01 8.000E+01 1.000E+02 1.500E+02 1.700E+02 2.400E+02 2.500E+02

    Z VALUES ARE RELATIVE TO STREAMBED ELEVATION

     SEGMENT NO.          Z1        Z2        Z3        Z4        Z5        Z6        Z7        Z8
            7      2.000E+01 1.300E+01 1.000E+01 2.000E+00 0.000E+00 1.000E+01 1.300E+01 2.000E+01
            8      2.500E+01 1.700E+01 1.300E+01 4.000E+00 0.000E+00 1.000E+01 1.600E+01 2.000E+01

 STREAMFLOW RELATION WITH DEPTH IS BASED ON EQUATION Q = CDPTH*(DEPTH)**FDPTH
 STREAMFLOW RELATION WITH WIDTH IS BASED ON EQUATION Q = AWDTH*(WIDTH)**BWDTH

 SEGMENT NO.      CDPTH     FDPTH    AWDTH     BWDTH

          5 3.000E-01 3.500E-01 3.800E+00 6.000E-01

 STREAMFLOW RELATION WITH DEPTH AND WIDTH IS BASED ON TABULATED VALUES

  SEGMENT NO.   STREAMFLOW       DEPTH       WIDTH

          1     5.0000E-01   2.5000E-01   3.0000E+00
          1     1.0000E+00   4.0000E-01   3.5000E+00
          1     2.0000E+00   5.5000E-01   4.2000E+00
          1     4.0000E+00   7.0000E-01   5.3000E+00
          1     7.0000E+00   8.0000E-01   7.0000E+00
          1     1.0000E+01   9.0000E-01   8.5000E+00
          1     2.0000E+01   1.1000E+00   1.2000E+01
          1     3.0000E+01   1.2500E+00   1.4000E+01
          1     5.0000E+01   1.4000E+00   1.7000E+01
          1     7.5000E+01   1.7000E+00   2.0000E+01
          1     1.0000E+02   1.8000E+00   2.2000E+01



TABULAR INFLOWS WERE READ FOR SEGMENT      1
FROM FILE UNIT NUMBER     55

          TIMES                    INFLOWS
         0.0000000000E+00     0.3750000000E+01
         0.8640000000E+05     0.1650000000E+02
         0.2760000000E+07     0.3150000000E+02
         0.5270000000E+07     0.5775000000E+02
         0.7950000000E+07     0.2100000000E+02
         0.1050000000E+08     0.7425000000E+02
         0.1320000000E+08     0.6225000000E+02
         0.1580000000E+08     0.5625000000E+02
         0.1850000000E+08     0.4575000000E+02
         0.2120000000E+08     0.3525000000E+02
         0.2380000000E+08     0.2625000000E+02
         0.2640000000E+08     0.1950000000E+02
         0.2900000000E+08     0.1725000000E+02
         0.3170000000E+08     0.1425000000E+02
         0.3440000000E+08     0.1575000000E+02
         0.3680000000E+08     0.7350000000E+02
         0.3950000000E+08     0.5625000000E+02
         0.4210000000E+08     0.4725000000E+02
         0.4480000000E+08     0.4350000000E+02
         0.4730000000E+08     0.4050000000E+02
         0.5000000000E+08     0.2775000000E+02
         0.5270000000E+08     0.1875000000E+02
         0.5530000000E+08     0.1650000000E+02
         0.5800000000E+08     0.1575000000E+02
         0.6060000000E+08     0.1500000000E+02
         0.6320000000E+08     0.1425000000E+02
         0.6330000000E+08     0.1650000000E+02
         0.6600000000E+08     0.3150000000E+02
         0.6850000000E+08     0.5775000000E+02
         0.7120000000E+08     0.2100000000E+02
         0.7370000000E+08     0.7425000000E+02
         0.7640000000E+08     0.6225000000E+02
         0.7900000000E+08     0.5625000000E+02
         0.8170000000E+08     0.4575000000E+02
         0.8440000000E+08     0.3525000000E+02
         0.8700000000E+08     0.2625000000E+02
         0.8960000000E+08     0.1950000000E+02
         0.9220000000E+08     0.1725000000E+02
         0.9490000000E+08     0.1425000000E+02
         0.9760000000E+08     0.1575000000E+02
         0.1000000000E+09     0.7350000000E+02
         0.1030000000E+09     0.5625000000E+02
         0.1050000000E+09     0.4725000000E+02
         0.1080000000E+09     0.4350000000E+02
         0.1110000000E+09     0.4050000000E+02
         0.1130000000E+09     0.2775000000E+02
         0.1160000000E+09     0.1875000000E+02
         0.1190000000E+09     0.1650000000E+02
         0.1210000000E+09     0.1575000000E+02
         0.1240000000E+09     0.1500000000E+02
         0.1260000000E+09     0.1425000000E+02
TABULAR INFLOWS WERE READ FOR SEGMENT      9
FROM FILE UNIT NUMBER     56

          TIMES                    INFLOWS
         0.0000000000E+00     0.1000000000E+03
         0.8640000000E+05     0.1000000000E+03
         0.1730000000E+06     0.1000000000E+03
         0.2590000000E+06     0.1000000000E+03
         0.3460000000E+06     0.1000000000E+03
         0.4320000000E+06     0.1000000000E+03
         0.5180000000E+06     0.1000000000E+03
         0.6050000000E+06     0.1000000000E+03
         0.6910000000E+06     0.1000000000E+03
         0.7780000000E+06     0.1000000000E+03
         0.8640000000E+06     0.1000000000E+03
         0.9500000000E+06     0.1000000000E+03
         0.1040000000E+07     0.1000000000E+03
         0.1120000000E+07     0.1000000000E+03
         0.1210000000E+07     0.1000000000E+03
         0.1300000000E+07     0.1000000000E+03
         0.1380000000E+07     0.1000000000E+03
         0.1470000000E+07     0.1000000000E+03
         0.1560000000E+07     0.1000000000E+03
         0.1640000000E+07     0.1000000000E+03
         0.1730000000E+07     0.1000000000E+03
         0.1810000000E+07     0.1000000000E+03
         0.1900000000E+07     0.1000000000E+03
         0.1990000000E+07     0.1000000000E+03
         0.2070000000E+07     0.1000000000E+03
         0.2160000000E+07     0.1000000000E+03
         0.2250000000E+07     0.1000000000E+03
         0.2330000000E+07     0.1000000000E+03
         0.2420000000E+07     0.1000000000E+03
         0.2510000000E+07     0.1000000000E+03
         0.2590000000E+07     0.1000000000E+03
         0.2680000000E+07     0.1000000000E+03
         0.2760000000E+07     0.1000000000E+03
         0.2850000000E+07     0.1000000000E+03
         0.2940000000E+07     0.1000000000E+03
         0.3020000000E+07     0.1000000000E+03
         0.3110000000E+07     0.1000000000E+03
         0.3200000000E+07     0.1000000000E+03
         0.3280000000E+07     0.1000000000E+03
         0.3370000000E+07     0.1000000000E+03
         0.3460000000E+07     0.1000000000E+03
         0.3540000000E+07     0.1000000000E+03
         0.3630000000E+07     0.1000000000E+03
         0.3720000000E+07     0.1000000000E+03
         0.3800000000E+07     0.1000000000E+03
         0.3890000000E+07     0.1000000000E+03
         0.3970000000E+07     0.1000000000E+03
         0.4060000000E+07     0.1000000000E+03
         0.4150000000E+07     0.1000000000E+03
         0.4230000000E+07     0.1000000000E+03
         0.4320000000E+07     0.1000000000E+03
         0.4410000000E+07     0.1000000000E+03
         0.4490000000E+07     0.1000000000E+03
         0.4580000000E+07     0.1000000000E+03
         0.4670000000E+07     0.1000000000E+03
         0.4750000000E+07     0.1000000000E+03
         0.4840000000E+07     0.1000000000E+03
         0.4920000000E+07     0.1000000000E+03
         0.5010000000E+07     0.1000000000E+03
         0.5100000000E+07     0.1000000000E+03
         0.5180000000E+07     0.1000000000E+03
         0.5270000000E+07     0.1000000000E+03
         0.5360000000E+07     0.1000000000E+03
         0.5440000000E+07     0.1000000000E+03
         0.5530000000E+07     0.1000000000E+03
         0.5620000000E+07     0.1000000000E+03
         0.5700000000E+07     0.1000000000E+03
         0.5790000000E+07     0.1000000000E+03
         0.5880000000E+07     0.1000000000E+03
         0.5960000000E+07     0.1000000000E+03
         0.6050000000E+07     0.1000000000E+03
         0.6130000000E+07     0.1000000000E+03
         0.6220000000E+07     0.1000000000E+03
         0.6310000000E+07     0.1000000000E+03
         0.6390000000E+07     0.1000000000E+03
         0.6480000000E+07     0.1000000000E+03
         0.6570000000E+07     0.1000000000E+03
         0.6650000000E+07     0.1000000000E+03
         0.6740000000E+07     0.1000000000E+03
         0.6830000000E+07     0.1000000000E+03
         0.6910000000E+07     0.1000000000E+03
         0.7000000000E+07     0.1000000000E+03
         0.7080000000E+07     0.1000000000E+03
         0.7170000000E+07     0.1000000000E+03
         0.7260000000E+07     0.1000000000E+03
         0.7340000000E+07     0.1000000000E+03
         0.7430000000E+07     0.1000000000E+03
         0.7520000000E+07     0.1000000000E+03
         0.7600000000E+07     0.1000000000E+03
         0.7690000000E+07     0.1000000000E+03
         0.7780000000E+07     0.1000000000E+03
         0.7860000000E+07     0.1000000000E+03
         0.7950000000E+07     0.1000000000E+03
         0.8040000000E+07     0.1000000000E+03
         0.8120000000E+07     0.1000000000E+03
         0.8210000000E+07     0.1000000000E+03
         0.8290000000E+07     0.1000000000E+03
         0.8380000000E+07     0.1000000000E+03
         0.8470000000E+07     0.1000000000E+03
         0.8550000000E+07     0.1000000000E+03
         0.8640000000E+07     0.1000000000E+03
         0.8730000000E+07     0.1000000000E+03
         0.8810000000E+07     0.1000000000E+03
         0.8900000000E+07     0.1000000000E+03
         0.8990000000E+07     0.1000000000E+03
         0.9070000000E+07     0.1000000000E+03
         0.9160000000E+07     0.1000000000E+03
         0.9240000000E+07     0.1000000000E+03
         0.9330000000E+07     0.1000000000E+03
         0.9420000000E+07     0.1000000000E+03
         0.9500000000E+07     0.1000000000E+03
         0.9590000000E+07     0.1000000000E+03
         0.9680000000E+07     0.1000000000E+03
         0.9760000000E+07     0.1000000000E+03
         0.9850000000E+07     0.1000000000E+03
         0.9940000000E+07     0.1000000000E+03
         0.1000000000E+08     0.1000000000E+03
         0.1010000000E+08     0.1000000000E+03
         0.1020000000E+08     0.1000000000E+03
         0.1030000000E+08     0.1000000000E+03
         0.1040000000E+08     0.1000000000E+03
         0.1050000000E+08     0.1000000000E+03
         0.1050000000E+08     0.1000000000E+03
         0.1060000000E+08     0.1000000000E+03
         0.1070000000E+08     0.1000000000E+03
         0.1080000000E+08     0.1000000000E+03
         0.1090000000E+08     0.1000000000E+03
         0.1100000000E+08     0.1000000000E+03
         0.1110000000E+08     0.1000000000E+03
         0.1110000000E+08     0.1000000000E+03
         0.1120000000E+08     0.1000000000E+03
         0.1130000000E+08     0.1000000000E+03
         0.1140000000E+08     0.1000000000E+03
         0.1150000000E+08     0.1000000000E+03
         0.1160000000E+08     0.1000000000E+03
         0.1170000000E+08     0.1000000000E+03
         0.1180000000E+08     0.1000000000E+03
         0.1180000000E+08     0.1000000000E+03
         0.1190000000E+08     0.1000000000E+03
         0.1200000000E+08     0.1000000000E+03
         0.1210000000E+08     0.1000000000E+03
         0.1220000000E+08     0.1000000000E+03
         0.1230000000E+08     0.1000000000E+03
         0.1240000000E+08     0.1000000000E+03
         0.1240000000E+08     0.1000000000E+03
         0.1250000000E+08     0.1000000000E+03
         0.1260000000E+08     0.1000000000E+03
         0.1270000000E+08     0.1000000000E+03
         0.1280000000E+08     0.1000000000E+03
         0.1290000000E+08     0.1000000000E+03
         0.1300000000E+08     0.1000000000E+03
         0.1300000000E+08     0.1000000000E+03
         0.1310000000E+08     0.1000000000E+03
         0.1320000000E+08     0.1000000000E+03
         0.1330000000E+08     0.1000000000E+03
         0.1340000000E+08     0.1000000000E+03
         0.1350000000E+08     0.1000000000E+03
         0.1360000000E+08     0.1000000000E+03
         0.1370000000E+08     0.1000000000E+03
         0.1370000000E+08     0.1000000000E+03
         0.1380000000E+08     0.1000000000E+03
         0.1390000000E+08     0.1000000000E+03
         0.1400000000E+08     0.1000000000E+03
         0.1410000000E+08     0.1000000000E+03
         0.1420000000E+08     0.1000000000E+03
         0.1430000000E+08     0.1000000000E+03
         0.1430000000E+08     0.1000000000E+03
         0.1440000000E+08     0.1000000000E+03
         0.1450000000E+08     0.1000000000E+03
         0.1460000000E+08     0.1000000000E+03
         0.1470000000E+08     0.1000000000E+03
         0.1480000000E+08     0.1000000000E+03
         0.1490000000E+08     0.1000000000E+03
         0.1490000000E+08     0.1000000000E+03
         0.1500000000E+08     0.1000000000E+03
         0.1510000000E+08     0.1000000000E+03
         0.1520000000E+08     0.1000000000E+03
         0.1530000000E+08     0.1000000000E+03
         0.1540000000E+08     0.1000000000E+03
         0.1550000000E+08     0.1000000000E+03
         0.1560000000E+08     0.1000000000E+03
         0.1560000000E+08     0.1000000000E+03
         0.1570000000E+08     0.1000000000E+03
         0.1580000000E+08     0.1000000000E+03
         0.1590000000E+08     0.1000000000E+03
         0.1600000000E+08     0.1000000000E+03
         0.1610000000E+08     0.1000000000E+03
         0.1620000000E+08     0.1000000000E+03
         0.1620000000E+08     0.1000000000E+03
         0.1630000000E+08     0.1000000000E+03
         0.1640000000E+08     0.1000000000E+03
         0.1650000000E+08     0.1000000000E+03
         0.1660000000E+08     0.1000000000E+03
         0.1670000000E+08     0.1000000000E+03
         0.1680000000E+08     0.1000000000E+03
         0.1680000000E+08     0.1000000000E+03
         0.1690000000E+08     0.1000000000E+03
         0.1700000000E+08     0.1000000000E+03
         0.1710000000E+08     0.1000000000E+03
         0.1720000000E+08     0.1000000000E+03
         0.1730000000E+08     0.1000000000E+03
         0.1740000000E+08     0.1000000000E+03
         0.1750000000E+08     0.1000000000E+03
         0.1750000000E+08     0.1000000000E+03
         0.1760000000E+08     0.1000000000E+03
         0.1770000000E+08     0.1000000000E+03
         0.1780000000E+08     0.1000000000E+03
         0.1790000000E+08     0.1000000000E+03
         0.1800000000E+08     0.1000000000E+03
         0.1810000000E+08     0.1000000000E+03
         0.1810000000E+08     0.1000000000E+03
         0.1820000000E+08     0.1000000000E+03
         0.1830000000E+08     0.1000000000E+03
         0.1840000000E+08     0.1000000000E+03
         0.1850000000E+08     0.1000000000E+03
         0.1860000000E+08     0.1000000000E+03
         0.1870000000E+08     0.1000000000E+03
         0.1870000000E+08     0.1000000000E+03
         0.1880000000E+08     0.1000000000E+03
         0.1890000000E+08     0.1000000000E+03
         0.1900000000E+08     0.1000000000E+03
         0.1910000000E+08     0.1000000000E+03
         0.1920000000E+08     0.1000000000E+03
         0.1930000000E+08     0.1000000000E+03
         0.1940000000E+08     0.1000000000E+03
         0.1940000000E+08     0.1000000000E+03
         0.1950000000E+08     0.1000000000E+03
         0.1960000000E+08     0.1000000000E+03
         0.1970000000E+08     0.1000000000E+03
         0.1980000000E+08     0.1000000000E+03
         0.1990000000E+08     0.1000000000E+03
         0.2000000000E+08     0.1000000000E+03
         0.2000000000E+08     0.1000000000E+03
         0.2010000000E+08     0.1000000000E+03
         0.2020000000E+08     0.1000000000E+03
         0.2030000000E+08     0.1000000000E+03
         0.2040000000E+08     0.1000000000E+03
         0.2050000000E+08     0.1000000000E+03
         0.2060000000E+08     0.1000000000E+03
         0.2070000000E+08     0.1000000000E+03
         0.2070000000E+08     0.1000000000E+03
         0.2080000000E+08     0.1000000000E+03
         0.2090000000E+08     0.1000000000E+03
         0.2100000000E+08     0.1000000000E+03
         0.2110000000E+08     0.1000000000E+03
         0.2120000000E+08     0.1000000000E+03
         0.2130000000E+08     0.1000000000E+03
         0.2130000000E+08     0.1000000000E+03
         0.2140000000E+08     0.1000000000E+03
         0.2150000000E+08     0.1000000000E+03
         0.2160000000E+08     0.1000000000E+03
         0.2170000000E+08     0.1000000000E+03
         0.2180000000E+08     0.1000000000E+03
         0.2190000000E+08     0.1000000000E+03
         0.2190000000E+08     0.1000000000E+03
         0.2200000000E+08     0.1000000000E+03
         0.2210000000E+08     0.1000000000E+03
         0.2220000000E+08     0.1000000000E+03
         0.2230000000E+08     0.1000000000E+03
         0.2240000000E+08     0.1000000000E+03
         0.2250000000E+08     0.1000000000E+03
         0.2260000000E+08     0.1000000000E+03
         0.2260000000E+08     0.1000000000E+03
         0.2270000000E+08     0.1000000000E+03
         0.2280000000E+08     0.1000000000E+03
         0.2290000000E+08     0.1000000000E+03
         0.2300000000E+08     0.1000000000E+03
         0.2310000000E+08     0.1000000000E+03
         0.2320000000E+08     0.1000000000E+03
         0.2320000000E+08     0.1000000000E+03
         0.2330000000E+08     0.1000000000E+03
         0.2340000000E+08     0.1000000000E+03
         0.2350000000E+08     0.1000000000E+03
         0.2360000000E+08     0.1000000000E+03
         0.2370000000E+08     0.1000000000E+03
         0.2380000000E+08     0.1000000000E+03
         0.2380000000E+08     0.1000000000E+03
         0.2390000000E+08     0.1000000000E+03
         0.2400000000E+08     0.1000000000E+03
         0.2410000000E+08     0.1000000000E+03
         0.2420000000E+08     0.1000000000E+03
         0.2430000000E+08     0.1000000000E+03
         0.2440000000E+08     0.1000000000E+03
         0.2450000000E+08     0.1000000000E+03
         0.2450000000E+08     0.1000000000E+03
         0.2460000000E+08     0.1000000000E+03
         0.2470000000E+08     0.1000000000E+03
         0.2480000000E+08     0.1000000000E+03
         0.2490000000E+08     0.1000000000E+03
         0.2500000000E+08     0.1000000000E+03
         0.2510000000E+08     0.1000000000E+03
         0.2510000000E+08     0.1000000000E+03
         0.2520000000E+08     0.1000000000E+03
         0.2530000000E+08     0.1000000000E+03
         0.2540000000E+08     0.1000000000E+03
         0.2550000000E+08     0.1000000000E+03
         0.2560000000E+08     0.1000000000E+03
         0.2570000000E+08     0.1000000000E+03
         0.2570000000E+08     0.1000000000E+03
         0.2580000000E+08     0.1000000000E+03
         0.2590000000E+08     0.1000000000E+03
         0.2600000000E+08     0.1000000000E+03
         0.2610000000E+08     0.1000000000E+03
         0.2620000000E+08     0.1000000000E+03
         0.2630000000E+08     0.1000000000E+03
         0.2640000000E+08     0.1000000000E+03
         0.2640000000E+08     0.1000000000E+03
         0.2650000000E+08     0.1000000000E+03
         0.2660000000E+08     0.1000000000E+03
         0.2670000000E+08     0.1000000000E+03
         0.2680000000E+08     0.1000000000E+03
         0.2690000000E+08     0.1000000000E+03
         0.2700000000E+08     0.1000000000E+03
         0.2700000000E+08     0.1000000000E+03
         0.2710000000E+08     0.1000000000E+03
         0.2720000000E+08     0.1000000000E+03
         0.2730000000E+08     0.1000000000E+03
         0.2740000000E+08     0.1000000000E+03
         0.2750000000E+08     0.1000000000E+03
         0.2760000000E+08     0.1000000000E+03
         0.2760000000E+08     0.1000000000E+03
         0.2770000000E+08     0.1000000000E+03
         0.2780000000E+08     0.1000000000E+03
         0.2790000000E+08     0.1000000000E+03
         0.2800000000E+08     0.1000000000E+03
         0.2810000000E+08     0.1000000000E+03
         0.2820000000E+08     0.1000000000E+03
         0.2830000000E+08     0.1000000000E+03
         0.2830000000E+08     0.1000000000E+03
         0.2840000000E+08     0.1000000000E+03
         0.2850000000E+08     0.1000000000E+03
         0.2860000000E+08     0.1000000000E+03
         0.2870000000E+08     0.1000000000E+03
         0.2880000000E+08     0.1000000000E+03
         0.2890000000E+08     0.1000000000E+03
         0.2890000000E+08     0.1000000000E+03
         0.2900000000E+08     0.1000000000E+03
         0.2910000000E+08     0.1000000000E+03
         0.2920000000E+08     0.1000000000E+03
         0.2930000000E+08     0.1000000000E+03
         0.2940000000E+08     0.1000000000E+03
         0.2950000000E+08     0.1000000000E+03
         0.2950000000E+08     0.1000000000E+03
         0.2960000000E+08     0.1000000000E+03
         0.2970000000E+08     0.1000000000E+03
         0.2980000000E+08     0.1000000000E+03
         0.2990000000E+08     0.1000000000E+03
         0.3000000000E+08     0.1000000000E+03
         0.3010000000E+08     0.1000000000E+03
         0.3020000000E+08     0.1000000000E+03
         0.3020000000E+08     0.1000000000E+03
         0.3030000000E+08     0.1000000000E+03
         0.3040000000E+08     0.1000000000E+03
         0.3050000000E+08     0.1000000000E+03
         0.3060000000E+08     0.1000000000E+03
         0.3070000000E+08     0.1000000000E+03
         0.3080000000E+08     0.1000000000E+03
         0.3080000000E+08     0.1000000000E+03
         0.3090000000E+08     0.1000000000E+03
         0.3100000000E+08     0.1000000000E+03
         0.3110000000E+08     0.1000000000E+03
         0.3120000000E+08     0.1000000000E+03
         0.3130000000E+08     0.1000000000E+03
         0.3140000000E+08     0.1000000000E+03
         0.3150000000E+08     0.1000000000E+03
         0.3150000000E+08     0.1000000000E+03
         0.3160000000E+08     0.1000000000E+03
         0.3170000000E+08     0.1000000000E+03
         0.3180000000E+08     0.1000000000E+03
         0.3190000000E+08     0.1000000000E+03
         0.3200000000E+08     0.1000000000E+03
         0.3210000000E+08     0.1000000000E+03
         0.3210000000E+08     0.1000000000E+03
         0.3220000000E+08     0.1000000000E+03
         0.3230000000E+08     0.1000000000E+03
         0.3240000000E+08     0.1000000000E+03
         0.3250000000E+08     0.1000000000E+03
         0.3260000000E+08     0.1000000000E+03
         0.3270000000E+08     0.1000000000E+03
         0.3270000000E+08     0.1000000000E+03
         0.3280000000E+08     0.1000000000E+03
         0.3290000000E+08     0.1000000000E+03
         0.3300000000E+08     0.1000000000E+03
         0.3310000000E+08     0.1000000000E+03
         0.3320000000E+08     0.1000000000E+03
         0.3330000000E+08     0.1000000000E+03
         0.3340000000E+08     0.1000000000E+03
         0.3340000000E+08     0.1000000000E+03
         0.3350000000E+08     0.1000000000E+03
         0.3360000000E+08     0.1000000000E+03
         0.3370000000E+08     0.1000000000E+03
         0.3380000000E+08     0.1000000000E+03
         0.3390000000E+08     0.1000000000E+03
         0.3400000000E+08     0.1000000000E+03
         0.3400000000E+08     0.1000000000E+03
         0.3410000000E+08     0.1000000000E+03
         0.3420000000E+08     0.1000000000E+03
         0.3430000000E+08     0.1000000000E+03
         0.3440000000E+08     0.1000000000E+03
         0.3450000000E+08     0.1000000000E+03
         0.3460000000E+08     0.1000000000E+03
         0.3460000000E+08     0.1000000000E+03
         0.3470000000E+08     0.1000000000E+03
         0.3480000000E+08     0.1000000000E+03
         0.3490000000E+08     0.1000000000E+03
         0.3500000000E+08     0.1000000000E+03
         0.3510000000E+08     0.1000000000E+03
         0.3520000000E+08     0.1000000000E+03
         0.3530000000E+08     0.1000000000E+03
         0.3530000000E+08     0.1000000000E+03
         0.3540000000E+08     0.1000000000E+03
         0.3550000000E+08     0.1000000000E+03
         0.3560000000E+08     0.1000000000E+03
         0.3570000000E+08     0.1000000000E+03
         0.3580000000E+08     0.1000000000E+03
         0.3590000000E+08     0.1000000000E+03
         0.3590000000E+08     0.1000000000E+03
         0.3600000000E+08     0.1000000000E+03
         0.3610000000E+08     0.1000000000E+03
         0.3620000000E+08     0.1000000000E+03
         0.3630000000E+08     0.1000000000E+03
         0.3640000000E+08     0.1000000000E+03
         0.3650000000E+08     0.1000000000E+03
         0.3650000000E+08     0.1000000000E+03
         0.3660000000E+08     0.1000000000E+03
         0.3670000000E+08     0.1000000000E+03
         0.3680000000E+08     0.1000000000E+03
         0.3690000000E+08     0.1000000000E+03
         0.3700000000E+08     0.1000000000E+03
         0.3710000000E+08     0.1000000000E+03
         0.3720000000E+08     0.1000000000E+03
         0.3720000000E+08     0.1000000000E+03
         0.3730000000E+08     0.1000000000E+03
         0.3740000000E+08     0.1000000000E+03
         0.3750000000E+08     0.1000000000E+03
         0.3760000000E+08     0.1000000000E+03
         0.3770000000E+08     0.1000000000E+03
         0.3780000000E+08     0.1000000000E+03
         0.3780000000E+08     0.1000000000E+03
         0.3790000000E+08     0.1000000000E+03
         0.3800000000E+08     0.1000000000E+03
         0.3810000000E+08     0.1000000000E+03
         0.3820000000E+08     0.1000000000E+03
         0.3830000000E+08     0.1000000000E+03
         0.3840000000E+08     0.1000000000E+03
         0.3840000000E+08     0.1000000000E+03
         0.3850000000E+08     0.1000000000E+03
         0.3860000000E+08     0.1000000000E+03
         0.3870000000E+08     0.1000000000E+03
         0.3880000000E+08     0.1000000000E+03
         0.3890000000E+08     0.1000000000E+03
         0.3900000000E+08     0.1000000000E+03
         0.3910000000E+08     0.1000000000E+03
         0.3910000000E+08     0.1000000000E+03
         0.3920000000E+08     0.1000000000E+03
         0.3930000000E+08     0.1000000000E+03
         0.3940000000E+08     0.1000000000E+03
         0.3950000000E+08     0.1000000000E+03
         0.3960000000E+08     0.1000000000E+03
         0.3970000000E+08     0.1000000000E+03
         0.3970000000E+08     0.1000000000E+03
         0.3980000000E+08     0.1000000000E+03
         0.3990000000E+08     0.1000000000E+03
         0.4000000000E+08     0.1000000000E+03
         0.4010000000E+08     0.1000000000E+03
         0.4020000000E+08     0.1000000000E+03
         0.4030000000E+08     0.1000000000E+03
         0.4030000000E+08     0.1000000000E+03
         0.4040000000E+08     0.1000000000E+03
         0.4050000000E+08     0.1000000000E+03
         0.4060000000E+08     0.1000000000E+03
         0.4070000000E+08     0.1000000000E+03
         0.4080000000E+08     0.1000000000E+03
         0.4090000000E+08     0.1000000000E+03
         0.4100000000E+08     0.1000000000E+03
         0.4100000000E+08     0.1000000000E+03
         0.4110000000E+08     0.1000000000E+03
         0.4120000000E+08     0.1000000000E+03
         0.4130000000E+08     0.1000000000E+03
         0.4140000000E+08     0.1000000000E+03
         0.4150000000E+08     0.1000000000E+03
         0.4160000000E+08     0.1000000000E+03
         0.4160000000E+08     0.1000000000E+03
         0.4170000000E+08     0.1000000000E+03
         0.4180000000E+08     0.1000000000E+03
         0.4190000000E+08     0.1000000000E+03
         0.4200000000E+08     0.1000000000E+03
         0.4210000000E+08     0.1000000000E+03
         0.4220000000E+08     0.1000000000E+03
         0.4230000000E+08     0.1000000000E+03
         0.4230000000E+08     0.1000000000E+03
         0.4240000000E+08     0.1000000000E+03
         0.4250000000E+08     0.1000000000E+03
         0.4260000000E+08     0.1000000000E+03
         0.4270000000E+08     0.1000000000E+03
         0.4280000000E+08     0.1000000000E+03
         0.4290000000E+08     0.1000000000E+03
         0.4290000000E+08     0.1000000000E+03
         0.4300000000E+08     0.1000000000E+03
         0.4310000000E+08     0.1000000000E+03
         0.4320000000E+08     0.1000000000E+03
         0.4330000000E+08     0.1000000000E+03
         0.4340000000E+08     0.1000000000E+03
         0.4350000000E+08     0.1000000000E+03
         0.4350000000E+08     0.1000000000E+03
         0.4360000000E+08     0.1000000000E+03
         0.4370000000E+08     0.1000000000E+03
         0.4380000000E+08     0.1000000000E+03
         0.4390000000E+08     0.1000000000E+03
         0.4400000000E+08     0.1000000000E+03
         0.4410000000E+08     0.1000000000E+03
         0.4420000000E+08     0.1000000000E+03
         0.4420000000E+08     0.1000000000E+03
         0.4430000000E+08     0.1000000000E+03
         0.4440000000E+08     0.1000000000E+03
         0.4450000000E+08     0.1000000000E+03
         0.4460000000E+08     0.1000000000E+03
         0.4470000000E+08     0.1000000000E+03
         0.4480000000E+08     0.1000000000E+03
         0.4480000000E+08     0.1000000000E+03
         0.4490000000E+08     0.1000000000E+03
         0.4500000000E+08     0.1000000000E+03
         0.4510000000E+08     0.1000000000E+03
         0.4520000000E+08     0.1000000000E+03
         0.4530000000E+08     0.1000000000E+03
         0.4540000000E+08     0.1000000000E+03
         0.4540000000E+08     0.1000000000E+03
         0.4550000000E+08     0.1000000000E+03
         0.4560000000E+08     0.1000000000E+03
         0.4570000000E+08     0.1000000000E+03
         0.4580000000E+08     0.1000000000E+03
         0.4590000000E+08     0.1000000000E+03
         0.4600000000E+08     0.1000000000E+03
         0.4610000000E+08     0.1000000000E+03
         0.4610000000E+08     0.1000000000E+03
         0.4620000000E+08     0.1000000000E+03
         0.4630000000E+08     0.1000000000E+03
         0.4640000000E+08     0.1000000000E+03
         0.4650000000E+08     0.1000000000E+03
         0.4660000000E+08     0.1000000000E+03
         0.4670000000E+08     0.1000000000E+03
         0.4670000000E+08     0.1000000000E+03
         0.4680000000E+08     0.1000000000E+03
         0.4690000000E+08     0.1000000000E+03
         0.4700000000E+08     0.1000000000E+03
         0.4710000000E+08     0.1000000000E+03
         0.4720000000E+08     0.1000000000E+03
         0.4730000000E+08     0.1000000000E+03
         0.4730000000E+08     0.1000000000E+03
         0.4740000000E+08     0.1000000000E+03
         0.4750000000E+08     0.1000000000E+03
         0.4760000000E+08     0.1000000000E+03
         0.4770000000E+08     0.1000000000E+03
         0.4780000000E+08     0.1000000000E+03
         0.4790000000E+08     0.1000000000E+03
         0.4800000000E+08     0.1000000000E+03
         0.4800000000E+08     0.1000000000E+03
         0.4810000000E+08     0.1000000000E+03
         0.4820000000E+08     0.1000000000E+03
         0.4830000000E+08     0.1000000000E+03
         0.4840000000E+08     0.1000000000E+03
         0.4850000000E+08     0.1000000000E+03
         0.4860000000E+08     0.1000000000E+03
         0.4860000000E+08     0.1000000000E+03
         0.4870000000E+08     0.1000000000E+03
         0.4880000000E+08     0.1000000000E+03
         0.4890000000E+08     0.1000000000E+03
         0.4900000000E+08     0.1000000000E+03
         0.4910000000E+08     0.1000000000E+03
         0.4920000000E+08     0.1000000000E+03
         0.4920000000E+08     0.1000000000E+03
         0.4930000000E+08     0.1000000000E+03
         0.4940000000E+08     0.1000000000E+03
         0.4950000000E+08     0.1000000000E+03
         0.4960000000E+08     0.1000000000E+03
         0.4970000000E+08     0.1000000000E+03
         0.4980000000E+08     0.1000000000E+03
         0.4990000000E+08     0.1000000000E+03
         0.4990000000E+08     0.1000000000E+03
         0.5000000000E+08     0.1000000000E+03
         0.5010000000E+08     0.1000000000E+03
         0.5020000000E+08     0.1000000000E+03
         0.5030000000E+08     0.1000000000E+03
         0.5040000000E+08     0.1000000000E+03
         0.5050000000E+08     0.1000000000E+03
         0.5050000000E+08     0.1000000000E+03
         0.5060000000E+08     0.1000000000E+03
         0.5070000000E+08     0.1000000000E+03
         0.5080000000E+08     0.1000000000E+03
         0.5090000000E+08     0.1000000000E+03
         0.5100000000E+08     0.1000000000E+03
         0.5110000000E+08     0.1000000000E+03
         0.5110000000E+08     0.1000000000E+03
         0.5120000000E+08     0.1000000000E+03
         0.5130000000E+08     0.1000000000E+03
         0.5140000000E+08     0.1000000000E+03
         0.5150000000E+08     0.1000000000E+03
         0.5160000000E+08     0.1000000000E+03
         0.5170000000E+08     0.1000000000E+03
         0.5180000000E+08     0.1000000000E+03
         0.5180000000E+08     0.1000000000E+03
         0.5190000000E+08     0.1000000000E+03
         0.5200000000E+08     0.1000000000E+03
         0.5210000000E+08     0.1000000000E+03
         0.5220000000E+08     0.1000000000E+03
         0.5230000000E+08     0.1000000000E+03
         0.5240000000E+08     0.1000000000E+03
         0.5240000000E+08     0.1000000000E+03
         0.5250000000E+08     0.1000000000E+03
         0.5260000000E+08     0.1000000000E+03
         0.5270000000E+08     0.1000000000E+03
         0.5280000000E+08     0.1000000000E+03
         0.5290000000E+08     0.1000000000E+03
         0.5300000000E+08     0.1000000000E+03
         0.5310000000E+08     0.1000000000E+03
         0.5310000000E+08     0.1000000000E+03
         0.5320000000E+08     0.1000000000E+03
         0.5330000000E+08     0.1000000000E+03
         0.5340000000E+08     0.1000000000E+03
         0.5350000000E+08     0.1000000000E+03
         0.5360000000E+08     0.1000000000E+03
         0.5370000000E+08     0.1000000000E+03
         0.5370000000E+08     0.1000000000E+03
         0.5380000000E+08     0.1000000000E+03
         0.5390000000E+08     0.1000000000E+03
         0.5400000000E+08     0.1000000000E+03
         0.5410000000E+08     0.1000000000E+03
         0.5420000000E+08     0.1000000000E+03
         0.5430000000E+08     0.1000000000E+03
         0.5430000000E+08     0.1000000000E+03
         0.5440000000E+08     0.1000000000E+03
         0.5450000000E+08     0.1000000000E+03
         0.5460000000E+08     0.1000000000E+03
         0.5470000000E+08     0.1000000000E+03
         0.5480000000E+08     0.1000000000E+03
         0.5490000000E+08     0.1000000000E+03
         0.5500000000E+08     0.1000000000E+03
         0.5500000000E+08     0.1000000000E+03
         0.5510000000E+08     0.1000000000E+03
         0.5520000000E+08     0.1000000000E+03
         0.5530000000E+08     0.1000000000E+03
         0.5540000000E+08     0.1000000000E+03
         0.5550000000E+08     0.1000000000E+03
         0.5560000000E+08     0.1000000000E+03
         0.5560000000E+08     0.1000000000E+03
         0.5570000000E+08     0.1000000000E+03
         0.5580000000E+08     0.1000000000E+03
         0.5590000000E+08     0.1000000000E+03
         0.5600000000E+08     0.1000000000E+03
         0.5610000000E+08     0.1000000000E+03
         0.5620000000E+08     0.1000000000E+03
         0.5620000000E+08     0.1000000000E+03
         0.5630000000E+08     0.1000000000E+03
         0.5640000000E+08     0.1000000000E+03
         0.5650000000E+08     0.1000000000E+03
         0.5660000000E+08     0.1000000000E+03
         0.5670000000E+08     0.1000000000E+03
         0.5680000000E+08     0.1000000000E+03
         0.5690000000E+08     0.1000000000E+03
         0.5690000000E+08     0.1000000000E+03
         0.5700000000E+08     0.1000000000E+03
         0.5710000000E+08     0.1000000000E+03
         0.5720000000E+08     0.1000000000E+03
         0.5730000000E+08     0.1000000000E+03
         0.5740000000E+08     0.1000000000E+03
         0.5750000000E+08     0.1000000000E+03
         0.5750000000E+08     0.1000000000E+03
         0.5760000000E+08     0.1000000000E+03
         0.5770000000E+08     0.1000000000E+03
         0.5780000000E+08     0.1000000000E+03
         0.5790000000E+08     0.1000000000E+03
         0.5800000000E+08     0.1000000000E+03
         0.5810000000E+08     0.1000000000E+03
         0.5810000000E+08     0.1000000000E+03
         0.5820000000E+08     0.1000000000E+03
         0.5830000000E+08     0.1000000000E+03
         0.5840000000E+08     0.1000000000E+03
         0.5850000000E+08     0.1000000000E+03
         0.5860000000E+08     0.1000000000E+03
         0.5870000000E+08     0.1000000000E+03
         0.5880000000E+08     0.1000000000E+03
         0.5880000000E+08     0.1000000000E+03
         0.5890000000E+08     0.1000000000E+03
         0.5900000000E+08     0.1000000000E+03
         0.5910000000E+08     0.1000000000E+03
         0.5920000000E+08     0.1000000000E+03
         0.5930000000E+08     0.1000000000E+03
         0.5940000000E+08     0.1000000000E+03
         0.5940000000E+08     0.1000000000E+03
         0.5950000000E+08     0.1000000000E+03
         0.5960000000E+08     0.1000000000E+03
         0.5970000000E+08     0.1000000000E+03
         0.5980000000E+08     0.1000000000E+03
         0.5990000000E+08     0.1000000000E+03
         0.6000000000E+08     0.1000000000E+03
         0.6000000000E+08     0.1000000000E+03
         0.6010000000E+08     0.1000000000E+03
         0.6020000000E+08     0.1000000000E+03
         0.6030000000E+08     0.1000000000E+03
         0.6040000000E+08     0.1000000000E+03
         0.6050000000E+08     0.1000000000E+03
         0.6060000000E+08     0.1000000000E+03
         0.6070000000E+08     0.1000000000E+03
         0.6070000000E+08     0.1000000000E+03
         0.6080000000E+08     0.1000000000E+03
         0.6090000000E+08     0.1000000000E+03
         0.6100000000E+08     0.1000000000E+03
         0.6110000000E+08     0.1000000000E+03
         0.6120000000E+08     0.1000000000E+03
         0.6130000000E+08     0.1000000000E+03
         0.6130000000E+08     0.1000000000E+03
         0.6140000000E+08     0.1000000000E+03
         0.6150000000E+08     0.1000000000E+03
         0.6160000000E+08     0.1000000000E+03
         0.6170000000E+08     0.1000000000E+03
         0.6180000000E+08     0.1000000000E+03
         0.6190000000E+08     0.1000000000E+03
         0.6190000000E+08     0.1000000000E+03
         0.6200000000E+08     0.1000000000E+03
         0.6210000000E+08     0.1000000000E+03
         0.6220000000E+08     0.1000000000E+03
         0.6230000000E+08     0.1000000000E+03
         0.6240000000E+08     0.1000000000E+03
         0.6250000000E+08     0.1000000000E+03
         0.6260000000E+08     0.1000000000E+03
         0.6260000000E+08     0.1000000000E+03
         0.6270000000E+08     0.1000000000E+03
         0.6280000000E+08     0.1000000000E+03
         0.6290000000E+08     0.1000000000E+03
         0.6300000000E+08     0.1000000000E+03
         0.6310000000E+08     0.1000000000E+03
         0.6320000000E+08     0.1000000000E+03
         0.6320000000E+08     0.1000000000E+03
         0.6330000000E+08     0.1000000000E+03
         0.6340000000E+08     0.1000000000E+03
         0.6350000000E+08     0.1000000000E+03
         0.6360000000E+08     0.1000000000E+03
         0.6370000000E+08     0.1000000000E+03
         0.6380000000E+08     0.1000000000E+03
         0.6390000000E+08     0.1000000000E+03
         0.6390000000E+08     0.1000000000E+03
         0.6400000000E+08     0.1000000000E+03
         0.6410000000E+08     0.1000000000E+03
         0.6420000000E+08     0.1000000000E+03
         0.6430000000E+08     0.1000000000E+03
         0.6440000000E+08     0.1000000000E+03
         0.6450000000E+08     0.1000000000E+03
         0.6450000000E+08     0.1000000000E+03
         0.6460000000E+08     0.1000000000E+03
         0.6470000000E+08     0.1000000000E+03
         0.6480000000E+08     0.1000000000E+03
         0.6490000000E+08     0.1000000000E+03
         0.6500000000E+08     0.1000000000E+03
         0.6510000000E+08     0.1000000000E+03
         0.6510000000E+08     0.1000000000E+03
         0.6520000000E+08     0.1000000000E+03
         0.6530000000E+08     0.1000000000E+03
         0.6540000000E+08     0.1000000000E+03
         0.6550000000E+08     0.1000000000E+03
         0.6560000000E+08     0.1000000000E+03
         0.6570000000E+08     0.1000000000E+03
         0.6580000000E+08     0.1000000000E+03
         0.6590000000E+08     0.1000000000E+03
         0.6600000000E+08     0.1000000000E+03
         0.6610000000E+08     0.1000000000E+03
         0.6610000000E+08     0.1000000000E+03
         0.6620000000E+08     0.1000000000E+03
         0.6630000000E+08     0.1000000000E+03
         0.6640000000E+08     0.1000000000E+03
         0.6650000000E+08     0.1000000000E+03
         0.6660000000E+08     0.1000000000E+03
         0.6670000000E+08     0.1000000000E+03
         0.6670000000E+08     0.1000000000E+03
         0.6680000000E+08     0.1000000000E+03
         0.6690000000E+08     0.1000000000E+03
         0.6700000000E+08     0.1000000000E+03
         0.6710000000E+08     0.1000000000E+03
         0.6720000000E+08     0.1000000000E+03
         0.6730000000E+08     0.1000000000E+03
         0.6730000000E+08     0.1000000000E+03
         0.6740000000E+08     0.1000000000E+03
         0.6750000000E+08     0.1000000000E+03
         0.6760000000E+08     0.1000000000E+03
         0.6770000000E+08     0.1000000000E+03
         0.6780000000E+08     0.1000000000E+03
         0.6790000000E+08     0.1000000000E+03
         0.6800000000E+08     0.1000000000E+03
         0.6810000000E+08     0.1000000000E+03
         0.6820000000E+08     0.1000000000E+03
         0.6830000000E+08     0.1000000000E+03
         0.6830000000E+08     0.1000000000E+03
         0.6840000000E+08     0.1000000000E+03
         0.6850000000E+08     0.1000000000E+03
         0.6860000000E+08     0.1000000000E+03
         0.6870000000E+08     0.1000000000E+03
         0.6880000000E+08     0.1000000000E+03
         0.6890000000E+08     0.1000000000E+03
         0.6890000000E+08     0.1000000000E+03
         0.6900000000E+08     0.1000000000E+03
         0.6910000000E+08     0.1000000000E+03
         0.6920000000E+08     0.1000000000E+03
         0.6930000000E+08     0.1000000000E+03
         0.6940000000E+08     0.1000000000E+03
         0.6950000000E+08     0.1000000000E+03
         0.6950000000E+08     0.1000000000E+03
         0.6960000000E+08     0.1000000000E+03
         0.6970000000E+08     0.1000000000E+03
         0.6980000000E+08     0.1000000000E+03
         0.6990000000E+08     0.1000000000E+03
         0.7000000000E+08     0.1000000000E+03
         0.7010000000E+08     0.1000000000E+03
         0.7020000000E+08     0.1000000000E+03
         0.7030000000E+08     0.1000000000E+03
         0.7040000000E+08     0.1000000000E+03
         0.7050000000E+08     0.1000000000E+03
         0.7050000000E+08     0.1000000000E+03
         0.7060000000E+08     0.1000000000E+03
         0.7070000000E+08     0.1000000000E+03
         0.7080000000E+08     0.1000000000E+03
         0.7090000000E+08     0.1000000000E+03
         0.7100000000E+08     0.1000000000E+03
         0.7110000000E+08     0.1000000000E+03
         0.7110000000E+08     0.1000000000E+03
         0.7120000000E+08     0.1000000000E+03
         0.7130000000E+08     0.1000000000E+03
         0.7140000000E+08     0.1000000000E+03
         0.7150000000E+08     0.1000000000E+03
         0.7160000000E+08     0.1000000000E+03
         0.7170000000E+08     0.1000000000E+03
         0.7170000000E+08     0.1000000000E+03
         0.7180000000E+08     0.1000000000E+03
         0.7190000000E+08     0.1000000000E+03
         0.7200000000E+08     0.1000000000E+03
         0.7210000000E+08     0.1000000000E+03
         0.7220000000E+08     0.1000000000E+03
         0.7230000000E+08     0.1000000000E+03
         0.7240000000E+08     0.1000000000E+03
         0.7250000000E+08     0.1000000000E+03
         0.7260000000E+08     0.1000000000E+03
         0.7270000000E+08     0.1000000000E+03
         0.7270000000E+08     0.1000000000E+03
         0.7280000000E+08     0.1000000000E+03
         0.7290000000E+08     0.1000000000E+03
         0.7300000000E+08     0.1000000000E+03
         0.7310000000E+08     0.1000000000E+03
         0.7320000000E+08     0.1000000000E+03
         0.7330000000E+08     0.1000000000E+03
         0.7330000000E+08     0.1000000000E+03
         0.7340000000E+08     0.1000000000E+03
         0.7350000000E+08     0.1000000000E+03
         0.7360000000E+08     0.1000000000E+03
         0.7370000000E+08     0.1000000000E+03
         0.7380000000E+08     0.1000000000E+03
         0.7390000000E+08     0.1000000000E+03
         0.7390000000E+08     0.1000000000E+03
         0.7400000000E+08     0.1000000000E+03
         0.7410000000E+08     0.1000000000E+03
         0.7420000000E+08     0.1000000000E+03
         0.7430000000E+08     0.1000000000E+03
         0.7440000000E+08     0.1000000000E+03
         0.7450000000E+08     0.1000000000E+03
         0.7460000000E+08     0.1000000000E+03
         0.7470000000E+08     0.1000000000E+03
         0.7480000000E+08     0.1000000000E+03
         0.7490000000E+08     0.1000000000E+03
         0.7490000000E+08     0.1000000000E+03
         0.7500000000E+08     0.1000000000E+03
         0.7510000000E+08     0.1000000000E+03
         0.7520000000E+08     0.1000000000E+03
         0.7530000000E+08     0.1000000000E+03
         0.7540000000E+08     0.1000000000E+03
         0.7550000000E+08     0.1000000000E+03
         0.7550000000E+08     0.1000000000E+03
         0.7560000000E+08     0.1000000000E+03
         0.7570000000E+08     0.1000000000E+03
         0.7580000000E+08     0.1000000000E+03
         0.7590000000E+08     0.1000000000E+03
         0.7600000000E+08     0.1000000000E+03
         0.7610000000E+08     0.1000000000E+03
         0.7610000000E+08     0.1000000000E+03
         0.7620000000E+08     0.1000000000E+03
         0.7630000000E+08     0.1000000000E+03
         0.7640000000E+08     0.1000000000E+03
         0.7650000000E+08     0.1000000000E+03
         0.7660000000E+08     0.1000000000E+03
         0.7670000000E+08     0.1000000000E+03
         0.7680000000E+08     0.1000000000E+03
         0.7690000000E+08     0.1000000000E+03
         0.7700000000E+08     0.1000000000E+03
         0.7710000000E+08     0.1000000000E+03
         0.7710000000E+08     0.1000000000E+03
         0.7720000000E+08     0.1000000000E+03
         0.7730000000E+08     0.1000000000E+03
         0.7740000000E+08     0.1000000000E+03
         0.7750000000E+08     0.1000000000E+03
         0.7760000000E+08     0.1000000000E+03
         0.7770000000E+08     0.1000000000E+03
         0.7770000000E+08     0.1000000000E+03
         0.7780000000E+08     0.1000000000E+03
         0.7790000000E+08     0.1000000000E+03
         0.7800000000E+08     0.1000000000E+03
         0.7810000000E+08     0.1000000000E+03
         0.7820000000E+08     0.1000000000E+03
         0.7830000000E+08     0.1000000000E+03
         0.7830000000E+08     0.1000000000E+03
         0.7840000000E+08     0.1000000000E+03
         0.7850000000E+08     0.1000000000E+03
         0.7860000000E+08     0.1000000000E+03
         0.7870000000E+08     0.1000000000E+03
         0.7880000000E+08     0.1000000000E+03
         0.7890000000E+08     0.1000000000E+03
         0.7900000000E+08     0.1000000000E+03
         0.7910000000E+08     0.1000000000E+03
         0.7920000000E+08     0.1000000000E+03
         0.7930000000E+08     0.1000000000E+03
         0.7930000000E+08     0.1000000000E+03
         0.7940000000E+08     0.1000000000E+03
         0.7950000000E+08     0.1000000000E+03
         0.7960000000E+08     0.1000000000E+03
         0.7970000000E+08     0.1000000000E+03
         0.7980000000E+08     0.1000000000E+03
         0.7990000000E+08     0.1000000000E+03
         0.7990000000E+08     0.1000000000E+03
         0.8000000000E+08     0.1000000000E+03
         0.8010000000E+08     0.1000000000E+03
         0.8020000000E+08     0.1000000000E+03
         0.8030000000E+08     0.1000000000E+03
         0.8040000000E+08     0.1000000000E+03
         0.8050000000E+08     0.1000000000E+03
         0.8050000000E+08     0.1000000000E+03
         0.8060000000E+08     0.1000000000E+03
         0.8070000000E+08     0.1000000000E+03
         0.8080000000E+08     0.1000000000E+03
         0.8090000000E+08     0.1000000000E+03
         0.8100000000E+08     0.1000000000E+03
         0.8110000000E+08     0.1000000000E+03
         0.8120000000E+08     0.1000000000E+03
         0.8130000000E+08     0.1000000000E+03
         0.8140000000E+08     0.1000000000E+03
         0.8150000000E+08     0.1000000000E+03
         0.8150000000E+08     0.1000000000E+03
         0.8160000000E+08     0.1000000000E+03
         0.8170000000E+08     0.1000000000E+03
         0.8180000000E+08     0.1000000000E+03
         0.8190000000E+08     0.1000000000E+03
         0.8200000000E+08     0.1000000000E+03
         0.8210000000E+08     0.1000000000E+03
         0.8210000000E+08     0.1000000000E+03
         0.8220000000E+08     0.1000000000E+03
         0.8230000000E+08     0.1000000000E+03
         0.8240000000E+08     0.1000000000E+03
         0.8250000000E+08     0.1000000000E+03
         0.8260000000E+08     0.1000000000E+03
         0.8270000000E+08     0.1000000000E+03
         0.8270000000E+08     0.1000000000E+03
         0.8280000000E+08     0.1000000000E+03
         0.8290000000E+08     0.1000000000E+03
         0.8300000000E+08     0.1000000000E+03
         0.8310000000E+08     0.1000000000E+03
         0.8320000000E+08     0.1000000000E+03
         0.8330000000E+08     0.1000000000E+03
         0.8340000000E+08     0.1000000000E+03
         0.8350000000E+08     0.1000000000E+03
         0.8360000000E+08     0.1000000000E+03
         0.8370000000E+08     0.1000000000E+03
         0.8370000000E+08     0.1000000000E+03
         0.8380000000E+08     0.1000000000E+03
         0.8390000000E+08     0.1000000000E+03
         0.8400000000E+08     0.1000000000E+03
         0.8410000000E+08     0.1000000000E+03
         0.8420000000E+08     0.1000000000E+03
         0.8430000000E+08     0.1000000000E+03
         0.8430000000E+08     0.1000000000E+03
         0.8440000000E+08     0.1000000000E+03
         0.8450000000E+08     0.1000000000E+03
         0.8460000000E+08     0.1000000000E+03
         0.8470000000E+08     0.1000000000E+03
         0.8480000000E+08     0.1000000000E+03
         0.8490000000E+08     0.1000000000E+03
         0.8490000000E+08     0.1000000000E+03
         0.8500000000E+08     0.1000000000E+03
         0.8510000000E+08     0.1000000000E+03
         0.8520000000E+08     0.1000000000E+03
         0.8530000000E+08     0.1000000000E+03
         0.8540000000E+08     0.1000000000E+03
         0.8550000000E+08     0.1000000000E+03
         0.8560000000E+08     0.1000000000E+03
         0.8570000000E+08     0.1000000000E+03
         0.8580000000E+08     0.1000000000E+03
         0.8590000000E+08     0.1000000000E+03
         0.8590000000E+08     0.1000000000E+03
         0.8600000000E+08     0.1000000000E+03
         0.8610000000E+08     0.1000000000E+03
         0.8620000000E+08     0.1000000000E+03
         0.8630000000E+08     0.1000000000E+03
         0.8640000000E+08     0.1000000000E+03
         0.8650000000E+08     0.1000000000E+03
         0.8650000000E+08     0.1000000000E+03
         0.8660000000E+08     0.1000000000E+03
         0.8670000000E+08     0.1000000000E+03
         0.8680000000E+08     0.1000000000E+03
         0.8690000000E+08     0.1000000000E+03
         0.8700000000E+08     0.1000000000E+03
         0.8710000000E+08     0.1000000000E+03
         0.8710000000E+08     0.1000000000E+03
         0.8720000000E+08     0.1000000000E+03
         0.8730000000E+08     0.1000000000E+03
         0.8740000000E+08     0.1000000000E+03
         0.8750000000E+08     0.1000000000E+03
         0.8760000000E+08     0.1000000000E+03
         0.8770000000E+08     0.1000000000E+03
         0.8780000000E+08     0.1000000000E+03
         0.8790000000E+08     0.1000000000E+03
         0.8800000000E+08     0.1000000000E+03
         0.8810000000E+08     0.1000000000E+03
         0.8810000000E+08     0.1000000000E+03
         0.8820000000E+08     0.1000000000E+03
         0.8830000000E+08     0.1000000000E+03
         0.8840000000E+08     0.1000000000E+03
         0.8850000000E+08     0.1000000000E+03
         0.8860000000E+08     0.1000000000E+03
         0.8870000000E+08     0.1000000000E+03
         0.8870000000E+08     0.1000000000E+03
         0.8880000000E+08     0.1000000000E+03
         0.8890000000E+08     0.1000000000E+03
         0.8900000000E+08     0.1000000000E+03
         0.8910000000E+08     0.1000000000E+03
         0.8920000000E+08     0.1000000000E+03
         0.8930000000E+08     0.1000000000E+03
         0.8930000000E+08     0.1000000000E+03
         0.8940000000E+08     0.1000000000E+03
         0.8950000000E+08     0.1000000000E+03
         0.8960000000E+08     0.1000000000E+03
         0.8970000000E+08     0.1000000000E+03
         0.8980000000E+08     0.1000000000E+03
         0.8990000000E+08     0.1000000000E+03
         0.9000000000E+08     0.1000000000E+03
         0.9010000000E+08     0.1000000000E+03
         0.9020000000E+08     0.1000000000E+03
         0.9030000000E+08     0.1000000000E+03
         0.9030000000E+08     0.1000000000E+03
         0.9040000000E+08     0.1000000000E+03
         0.9050000000E+08     0.1000000000E+03
         0.9060000000E+08     0.1000000000E+03
         0.9070000000E+08     0.1000000000E+03
         0.9080000000E+08     0.1000000000E+03
         0.9090000000E+08     0.1000000000E+03
         0.9090000000E+08     0.1000000000E+03
         0.9100000000E+08     0.1000000000E+03
         0.9110000000E+08     0.1000000000E+03
         0.9120000000E+08     0.1000000000E+03
         0.9130000000E+08     0.1000000000E+03
         0.9140000000E+08     0.1000000000E+03
         0.9150000000E+08     0.1000000000E+03
         0.9150000000E+08     0.1000000000E+03
         0.9160000000E+08     0.1000000000E+03
         0.9170000000E+08     0.1000000000E+03
         0.9180000000E+08     0.1000000000E+03
         0.9190000000E+08     0.1000000000E+03
         0.9200000000E+08     0.1000000000E+03
         0.9210000000E+08     0.1000000000E+03
         0.9220000000E+08     0.1000000000E+03
         0.9230000000E+08     0.1000000000E+03
         0.9240000000E+08     0.1000000000E+03
         0.9250000000E+08     0.1000000000E+03
         0.9250000000E+08     0.1000000000E+03
         0.9260000000E+08     0.1000000000E+03
         0.9270000000E+08     0.1000000000E+03
         0.9280000000E+08     0.1000000000E+03
         0.9290000000E+08     0.1000000000E+03
         0.9300000000E+08     0.1000000000E+03
         0.9310000000E+08     0.1000000000E+03
         0.9310000000E+08     0.1000000000E+03
         0.9320000000E+08     0.1000000000E+03
         0.9330000000E+08     0.1000000000E+03
         0.9340000000E+08     0.1000000000E+03
         0.9350000000E+08     0.1000000000E+03
         0.9360000000E+08     0.1000000000E+03
         0.9370000000E+08     0.1000000000E+03
         0.9370000000E+08     0.1000000000E+03
         0.9380000000E+08     0.1000000000E+03
         0.9390000000E+08     0.1000000000E+03
         0.9400000000E+08     0.1000000000E+03
         0.9410000000E+08     0.1000000000E+03
         0.9420000000E+08     0.1000000000E+03
         0.9430000000E+08     0.1000000000E+03
         0.9440000000E+08     0.1000000000E+03
         0.9450000000E+08     0.1000000000E+03
         0.9460000000E+08     0.1000000000E+03
         0.9470000000E+08     0.1000000000E+03
         0.9470000000E+08     0.1000000000E+03
         0.9480000000E+08     0.1000000000E+03
         0.9490000000E+08     0.1000000000E+03
         0.9500000000E+08     0.1000000000E+03
         0.9510000000E+08     0.1000000000E+03
         0.9520000000E+08     0.1000000000E+03
         0.9530000000E+08     0.1000000000E+03
         0.9530000000E+08     0.1000000000E+03
         0.9540000000E+08     0.1000000000E+03
         0.9550000000E+08     0.1000000000E+03
         0.9560000000E+08     0.1000000000E+03
         0.9570000000E+08     0.1000000000E+03
         0.9580000000E+08     0.1000000000E+03
         0.9590000000E+08     0.1000000000E+03
         0.9590000000E+08     0.1000000000E+03
         0.9600000000E+08     0.1000000000E+03
         0.9610000000E+08     0.1000000000E+03
         0.9620000000E+08     0.1000000000E+03
         0.9630000000E+08     0.1000000000E+03
         0.9640000000E+08     0.1000000000E+03
         0.9650000000E+08     0.1000000000E+03
         0.9660000000E+08     0.1000000000E+03
         0.9670000000E+08     0.1000000000E+03
         0.9680000000E+08     0.1000000000E+03
         0.9690000000E+08     0.1000000000E+03
         0.9690000000E+08     0.1000000000E+03
         0.9700000000E+08     0.1000000000E+03
         0.9710000000E+08     0.1000000000E+03
         0.9720000000E+08     0.1000000000E+03
         0.9730000000E+08     0.1000000000E+03
         0.9740000000E+08     0.1000000000E+03
         0.9750000000E+08     0.1000000000E+03
         0.9750000000E+08     0.1000000000E+03
         0.9760000000E+08     0.1000000000E+03
         0.9770000000E+08     0.1000000000E+03
         0.9780000000E+08     0.1000000000E+03
         0.9790000000E+08     0.1000000000E+03
         0.9800000000E+08     0.1000000000E+03
         0.9810000000E+08     0.1000000000E+03
         0.9810000000E+08     0.1000000000E+03
         0.9820000000E+08     0.1000000000E+03
         0.9830000000E+08     0.1000000000E+03
         0.9840000000E+08     0.1000000000E+03
         0.9850000000E+08     0.1000000000E+03
         0.9860000000E+08     0.1000000000E+03
         0.9870000000E+08     0.1000000000E+03
         0.9880000000E+08     0.1000000000E+03
         0.9890000000E+08     0.1000000000E+03
         0.9900000000E+08     0.1000000000E+03
         0.9910000000E+08     0.1000000000E+03
         0.9910000000E+08     0.1000000000E+03
         0.9920000000E+08     0.1000000000E+03
         0.9930000000E+08     0.1000000000E+03
         0.9940000000E+08     0.1000000000E+03
         0.9950000000E+08     0.1000000000E+03
         0.9960000000E+08     0.1000000000E+03
         0.9970000000E+08     0.1000000000E+03
         0.9970000000E+08     0.1000000000E+03
         0.9980000000E+08     0.1000000000E+03
         0.9990000000E+08     0.1000000000E+03
         0.1000000000E+09     0.1000000000E+03
         0.1001000000E+09     0.1000000000E+03
         0.1002000000E+09     0.1000000000E+03
         0.1003000000E+09     0.1000000000E+03
         0.1003000000E+09     0.1000000000E+03
         0.1004000000E+09     0.1000000000E+03
         0.1005000000E+09     0.1000000000E+03
         0.1006000000E+09     0.1000000000E+03
         0.1007000000E+09     0.1000000000E+03
         0.1008000000E+09     0.1000000000E+03
         0.1009000000E+09     0.1000000000E+03
         0.1010000000E+09     0.1000000000E+03
         0.1011000000E+09     0.1000000000E+03
         0.1012000000E+09     0.1000000000E+03
         0.1013000000E+09     0.1000000000E+03
         0.1013000000E+09     0.1000000000E+03
         0.1014000000E+09     0.1000000000E+03
         0.1015000000E+09     0.1000000000E+03
         0.1016000000E+09     0.1000000000E+03
         0.1017000000E+09     0.1000000000E+03
         0.1018000000E+09     0.1000000000E+03
         0.1019000000E+09     0.1000000000E+03
         0.1019000000E+09     0.1000000000E+03
         0.1020000000E+09     0.1000000000E+03
         0.1021000000E+09     0.1000000000E+03
         0.1022000000E+09     0.1000000000E+03
         0.1023000000E+09     0.1000000000E+03
         0.1024000000E+09     0.1000000000E+03
         0.1025000000E+09     0.1000000000E+03
         0.1025000000E+09     0.1000000000E+03
         0.1026000000E+09     0.1000000000E+03
         0.1027000000E+09     0.1000000000E+03
         0.1028000000E+09     0.1000000000E+03
         0.1029000000E+09     0.1000000000E+03
         0.1030000000E+09     0.1000000000E+03
         0.1031000000E+09     0.1000000000E+03
         0.1032000000E+09     0.1000000000E+03
         0.1033000000E+09     0.1000000000E+03
         0.1034000000E+09     0.1000000000E+03
         0.1035000000E+09     0.1000000000E+03
         0.1035000000E+09     0.1000000000E+03
         0.1036000000E+09     0.1000000000E+03
         0.1037000000E+09     0.1000000000E+03
         0.1038000000E+09     0.1000000000E+03
         0.1039000000E+09     0.1000000000E+03
         0.1040000000E+09     0.1000000000E+03
         0.1041000000E+09     0.1000000000E+03
         0.1041000000E+09     0.1000000000E+03
         0.1042000000E+09     0.1000000000E+03
         0.1043000000E+09     0.1000000000E+03
         0.1044000000E+09     0.1000000000E+03
         0.1045000000E+09     0.1000000000E+03
         0.1046000000E+09     0.1000000000E+03
         0.1047000000E+09     0.1000000000E+03
         0.1047000000E+09     0.1000000000E+03
         0.1048000000E+09     0.1000000000E+03
         0.1049000000E+09     0.1000000000E+03
         0.1050000000E+09     0.1000000000E+03
         0.1051000000E+09     0.1000000000E+03
         0.1052000000E+09     0.1000000000E+03
         0.1053000000E+09     0.1000000000E+03
         0.1054000000E+09     0.1000000000E+03
         0.1055000000E+09     0.1000000000E+03
         0.1056000000E+09     0.1000000000E+03
         0.1057000000E+09     0.1000000000E+03
         0.1057000000E+09     0.1000000000E+03
         0.1058000000E+09     0.1000000000E+03
         0.1059000000E+09     0.1000000000E+03
         0.1060000000E+09     0.1000000000E+03
         0.1061000000E+09     0.1000000000E+03
         0.1062000000E+09     0.1000000000E+03
         0.1063000000E+09     0.1000000000E+03
         0.1063000000E+09     0.1000000000E+03
         0.1064000000E+09     0.1000000000E+03
         0.1065000000E+09     0.1000000000E+03
         0.1066000000E+09     0.1000000000E+03
         0.1067000000E+09     0.1000000000E+03
         0.1068000000E+09     0.1000000000E+03
         0.1069000000E+09     0.1000000000E+03
         0.1069000000E+09     0.1000000000E+03
         0.1070000000E+09     0.1000000000E+03
         0.1071000000E+09     0.1000000000E+03
         0.1072000000E+09     0.1000000000E+03
         0.1073000000E+09     0.1000000000E+03
         0.1074000000E+09     0.1000000000E+03
         0.1075000000E+09     0.1000000000E+03
         0.1076000000E+09     0.1000000000E+03
         0.1077000000E+09     0.1000000000E+03
         0.1078000000E+09     0.1000000000E+03
         0.1079000000E+09     0.1000000000E+03
         0.1079000000E+09     0.1000000000E+03
         0.1080000000E+09     0.1000000000E+03
         0.1081000000E+09     0.1000000000E+03
         0.1082000000E+09     0.1000000000E+03
         0.1083000000E+09     0.1000000000E+03
         0.1084000000E+09     0.1000000000E+03
         0.1085000000E+09     0.1000000000E+03
         0.1085000000E+09     0.1000000000E+03
         0.1086000000E+09     0.1000000000E+03
         0.1087000000E+09     0.1000000000E+03
         0.1088000000E+09     0.1000000000E+03
         0.1089000000E+09     0.1000000000E+03
         0.1090000000E+09     0.1000000000E+03
         0.1091000000E+09     0.1000000000E+03
         0.1091000000E+09     0.1000000000E+03
         0.1092000000E+09     0.1000000000E+03
         0.1093000000E+09     0.1000000000E+03
         0.1094000000E+09     0.1000000000E+03
         0.1095000000E+09     0.1000000000E+03
         0.1096000000E+09     0.1000000000E+03
         0.1097000000E+09     0.1000000000E+03
         0.1098000000E+09     0.1000000000E+03
         0.1099000000E+09     0.1000000000E+03
         0.1100000000E+09     0.1000000000E+03
         0.1101000000E+09     0.1000000000E+03
         0.1101000000E+09     0.1000000000E+03
         0.1102000000E+09     0.1000000000E+03
         0.1103000000E+09     0.1000000000E+03
         0.1104000000E+09     0.1000000000E+03
         0.1105000000E+09     0.1000000000E+03
         0.1106000000E+09     0.1000000000E+03
         0.1107000000E+09     0.1000000000E+03
         0.1107000000E+09     0.1000000000E+03
         0.1108000000E+09     0.1000000000E+03
         0.1109000000E+09     0.1000000000E+03
         0.1110000000E+09     0.1000000000E+03
         0.1111000000E+09     0.1000000000E+03
         0.1112000000E+09     0.1000000000E+03
         0.1113000000E+09     0.1000000000E+03
         0.1113000000E+09     0.1000000000E+03
         0.1114000000E+09     0.1000000000E+03
         0.1115000000E+09     0.1000000000E+03
         0.1116000000E+09     0.1000000000E+03
         0.1117000000E+09     0.1000000000E+03
         0.1118000000E+09     0.1000000000E+03
         0.1119000000E+09     0.1000000000E+03
         0.1120000000E+09     0.1000000000E+03
         0.1121000000E+09     0.1000000000E+03
         0.1122000000E+09     0.1000000000E+03
         0.1123000000E+09     0.1000000000E+03
         0.1123000000E+09     0.1000000000E+03
         0.1124000000E+09     0.1000000000E+03
         0.1125000000E+09     0.1000000000E+03
         0.1126000000E+09     0.1000000000E+03
         0.1127000000E+09     0.1000000000E+03
         0.1128000000E+09     0.1000000000E+03
         0.1129000000E+09     0.1000000000E+03
         0.1129000000E+09     0.1000000000E+03
         0.1130000000E+09     0.1000000000E+03
         0.1131000000E+09     0.1000000000E+03
         0.1132000000E+09     0.1000000000E+03
         0.1133000000E+09     0.1000000000E+03
         0.1134000000E+09     0.1000000000E+03
         0.1135000000E+09     0.1000000000E+03
         0.1135000000E+09     0.1000000000E+03
         0.1136000000E+09     0.1000000000E+03
         0.1137000000E+09     0.1000000000E+03
         0.1138000000E+09     0.1000000000E+03
         0.1139000000E+09     0.1000000000E+03
         0.1140000000E+09     0.1000000000E+03
         0.1141000000E+09     0.1000000000E+03
         0.1142000000E+09     0.1000000000E+03
         0.1143000000E+09     0.1000000000E+03
         0.1144000000E+09     0.1000000000E+03
         0.1145000000E+09     0.1000000000E+03
         0.1145000000E+09     0.1000000000E+03
         0.1146000000E+09     0.1000000000E+03
         0.1147000000E+09     0.1000000000E+03
         0.1148000000E+09     0.1000000000E+03
         0.1149000000E+09     0.1000000000E+03
         0.1150000000E+09     0.1000000000E+03
         0.1151000000E+09     0.1000000000E+03
         0.1151000000E+09     0.1000000000E+03
         0.1152000000E+09     0.1000000000E+03
         0.1153000000E+09     0.1000000000E+03
         0.1154000000E+09     0.1000000000E+03
         0.1155000000E+09     0.1000000000E+03
         0.1156000000E+09     0.1000000000E+03
         0.1157000000E+09     0.1000000000E+03
         0.1157000000E+09     0.1000000000E+03
         0.1158000000E+09     0.1000000000E+03
         0.1159000000E+09     0.1000000000E+03
         0.1160000000E+09     0.1000000000E+03
         0.1161000000E+09     0.1000000000E+03
         0.1162000000E+09     0.1000000000E+03
         0.1163000000E+09     0.1000000000E+03
         0.1164000000E+09     0.1000000000E+03
         0.1165000000E+09     0.1000000000E+03
         0.1166000000E+09     0.1000000000E+03
         0.1167000000E+09     0.1000000000E+03
         0.1167000000E+09     0.1000000000E+03
         0.1168000000E+09     0.1000000000E+03
         0.1169000000E+09     0.1000000000E+03
         0.1170000000E+09     0.1000000000E+03
         0.1171000000E+09     0.1000000000E+03
         0.1172000000E+09     0.1000000000E+03
         0.1173000000E+09     0.1000000000E+03
         0.1173000000E+09     0.1000000000E+03
         0.1174000000E+09     0.1000000000E+03
         0.1175000000E+09     0.1000000000E+03
         0.1176000000E+09     0.1000000000E+03
         0.1177000000E+09     0.1000000000E+03
         0.1178000000E+09     0.1000000000E+03
         0.1179000000E+09     0.1000000000E+03
         0.1179000000E+09     0.1000000000E+03
         0.1180000000E+09     0.1000000000E+03
         0.1181000000E+09     0.1000000000E+03
         0.1182000000E+09     0.1000000000E+03
         0.1183000000E+09     0.1000000000E+03
         0.1184000000E+09     0.1000000000E+03
         0.1185000000E+09     0.1000000000E+03
         0.1186000000E+09     0.1000000000E+03
         0.1187000000E+09     0.1000000000E+03
         0.1188000000E+09     0.1000000000E+03
         0.1189000000E+09     0.1000000000E+03
         0.1189000000E+09     0.1000000000E+03
         0.1190000000E+09     0.1000000000E+03
         0.1191000000E+09     0.1000000000E+03
         0.1192000000E+09     0.1000000000E+03
         0.1193000000E+09     0.1000000000E+03
         0.1194000000E+09     0.1000000000E+03
         0.1195000000E+09     0.1000000000E+03
         0.1195000000E+09     0.1000000000E+03
         0.1196000000E+09     0.1000000000E+03
         0.1197000000E+09     0.1000000000E+03
         0.1198000000E+09     0.1000000000E+03
         0.1199000000E+09     0.1000000000E+03
         0.1200000000E+09     0.1000000000E+03
         0.1201000000E+09     0.1000000000E+03
         0.1201000000E+09     0.1000000000E+03
         0.1202000000E+09     0.1000000000E+03
         0.1203000000E+09     0.1000000000E+03
         0.1204000000E+09     0.1000000000E+03
         0.1205000000E+09     0.1000000000E+03
         0.1206000000E+09     0.1000000000E+03
         0.1207000000E+09     0.1000000000E+03
         0.1208000000E+09     0.1000000000E+03
         0.1209000000E+09     0.1000000000E+03
         0.1210000000E+09     0.1000000000E+03
         0.1211000000E+09     0.1000000000E+03
         0.1211000000E+09     0.1000000000E+03
         0.1212000000E+09     0.1000000000E+03
         0.1213000000E+09     0.1000000000E+03
         0.1214000000E+09     0.1000000000E+03
         0.1215000000E+09     0.1000000000E+03
         0.1216000000E+09     0.1000000000E+03
         0.1217000000E+09     0.1000000000E+03
         0.1217000000E+09     0.1000000000E+03
         0.1218000000E+09     0.1000000000E+03
         0.1219000000E+09     0.1000000000E+03
         0.1220000000E+09     0.1000000000E+03
         0.1221000000E+09     0.1000000000E+03
         0.1222000000E+09     0.1000000000E+03
         0.1223000000E+09     0.1000000000E+03
         0.1223000000E+09     0.1000000000E+03
         0.1224000000E+09     0.1000000000E+03
         0.1225000000E+09     0.1000000000E+03
         0.1226000000E+09     0.1000000000E+03
         0.1227000000E+09     0.1000000000E+03
         0.1228000000E+09     0.1000000000E+03
         0.1229000000E+09     0.1000000000E+03
         0.1230000000E+09     0.1000000000E+03
         0.1231000000E+09     0.1000000000E+03
         0.1232000000E+09     0.1000000000E+03
         0.1233000000E+09     0.1000000000E+03
         0.1233000000E+09     0.1000000000E+03
         0.1234000000E+09     0.1000000000E+03
         0.1235000000E+09     0.1000000000E+03
         0.1236000000E+09     0.1000000000E+03
         0.1237000000E+09     0.1000000000E+03
         0.1238000000E+09     0.1000000000E+03
         0.1239000000E+09     0.1000000000E+03
         0.1239000000E+09     0.1000000000E+03
         0.1240000000E+09     0.1000000000E+03
         0.1241000000E+09     0.1000000000E+03
         0.1242000000E+09     0.1000000000E+03
         0.1243000000E+09     0.1000000000E+03
         0.1244000000E+09     0.1000000000E+03
         0.1245000000E+09     0.1000000000E+03
         0.1245000000E+09     0.1000000000E+03
         0.1246000000E+09     0.1000000000E+03
         0.1247000000E+09     0.1000000000E+03
         0.1248000000E+09     0.1000000000E+03
         0.1249000000E+09     0.1000000000E+03
         0.1250000000E+09     0.1000000000E+03
         0.1251000000E+09     0.1000000000E+03
         0.1252000000E+09     0.1000000000E+03
         0.1253000000E+09     0.1000000000E+03
         0.1254000000E+09     0.1000000000E+03
         0.1255000000E+09     0.1000000000E+03
         0.1255000000E+09     0.1000000000E+03
         0.1256000000E+09     0.1000000000E+03
         0.1257000000E+09     0.1000000000E+03
         0.1258000000E+09     0.1000000000E+03
         0.1259000000E+09     0.1000000000E+03
         0.1260000000E+09     0.1000000000E+03



            AREAL INFILTRATION RATE
 READING ON UNIT   19 WITH FORMAT: (10F4.0)            

            1           2           3           4           5           6           7           8           9          10
 ........................................................................................................................
   1   1.0000E-10  2.0000E-10   0.000       0.000       0.000       0.000       0.000       0.000       0.000       0.000    
   2   2.0000E-10  1.0000E-10  2.0000E-10   0.000       0.000      8.0000E-10  8.0000E-10  5.0000E-10   0.000       0.000    
   3    0.000      5.0000E-10  1.0000E-10  1.0000E-10  8.0000E-10  8.0000E-10  5.0000E-10  5.0000E-10   0.000       0.000    
   4   8.0000E-10  5.0000E-10  1.0000E-10  1.0000E-10  1.0000E-10  1.0000E-10  1.0000E-10  1.0000E-10  2.0000E-10   0.000    
   5   8.0000E-10  5.0000E-10  1.0000E-10  1.0000E-10  1.0000E-10  1.0000E-10  1.0000E-10  1.0000E-10  1.0000E-10  1.0000E-10
   6   8.0000E-10  5.0000E-10  5.0000E-10  2.0000E-10  2.0000E-10  1.0000E-10  1.0000E-10  1.0000E-10  1.0000E-10  5.0000E-10
   7   8.0000E-10  5.0000E-10  5.0000E-10  2.0000E-10  2.0000E-10  1.0000E-10  1.0000E-10  2.0000E-10  2.0000E-10   0.000    
   8    0.000      5.0000E-10  5.0000E-10  2.0000E-10  2.0000E-10  1.0000E-10  1.0000E-10  2.0000E-10  5.0000E-10   0.000    
   9    0.000      5.0000E-10  5.0000E-10  2.0000E-10  2.0000E-10  1.0000E-10  1.0000E-10  2.0000E-10  5.0000E-10   0.000    
  10    0.000      5.0000E-10  5.0000E-10  2.0000E-10  2.0000E-10  1.0000E-10  1.0000E-10  2.0000E-10  5.0000E-10  8.0000E-10
  11    0.000      1.0000E-10  1.0000E-10  1.0000E-10  1.0000E-10  1.0000E-10  1.0000E-10  2.0000E-10  5.0000E-10   0.000    
  12   1.0000E-10  1.0000E-10  1.0000E-10  1.0000E-10  1.0000E-10  1.0000E-10  1.0000E-10  1.0000E-10  2.0000E-10   0.000    
  13   1.0000E-10  1.0000E-10  2.0000E-10  2.0000E-10  2.0000E-10  2.0000E-10  2.0000E-10  1.0000E-10  1.0000E-10   0.000    
  14    0.000      2.0000E-10  5.0000E-10  5.0000E-10  5.0000E-10  5.0000E-10  5.0000E-10  2.0000E-10  1.0000E-10   0.000    
  15    0.000       0.000      8.0000E-10  8.0000E-10  8.0000E-10  8.0000E-10   0.000       0.000       0.000       0.000    

                  ET RATE =  1.000000E-08

      ET EXTINCTION DEPTH =  0.500000    

 EXTINCTION WATER CONTENT =  0.200000    

EXTINCTION WATER CONTENT FOR CELL AT ROW     1, COLUMN     1 IS LESS THAN RESIDUAL WATER CONTENT-- SETTING EXTINCTION WATER CONTENT EQUAL TO RESIDUAL WATER CONTENT

EXTINCTION WATER CONTENT FOR CELL AT ROW     1, COLUMN     2 IS LESS THAN RESIDUAL WATER CONTENT-- SETTING EXTINCTION WATER CONTENT EQUAL TO RESIDUAL WATER CONTENT

EXTINCTION WATER CONTENT FOR CELL AT ROW     2, COLUMN     1 IS LESS THAN RESIDUAL WATER CONTENT-- SETTING EXTINCTION WATER CONTENT EQUAL TO RESIDUAL WATER CONTENT

EXTINCTION WATER CONTENT FOR CELL AT ROW     2, COLUMN     2 IS LESS THAN RESIDUAL WATER CONTENT-- SETTING EXTINCTION WATER CONTENT EQUAL TO RESIDUAL WATER CONTENT

EXTINCTION WATER CONTENT FOR CELL AT ROW     2, COLUMN     3 IS LESS THAN RESIDUAL WATER CONTENT-- SETTING EXTINCTION WATER CONTENT EQUAL TO RESIDUAL WATER CONTENT

EXTINCTION WATER CONTENT FOR CELL AT ROW     2, COLUMN     6 IS LESS THAN RESIDUAL WATER CONTENT-- SETTING EXTINCTION WATER CONTENT EQUAL TO RESIDUAL WATER CONTENT

EXTINCTION WATER CONTENT FOR CELL AT ROW     2, COLUMN     7 IS LESS THAN RESIDUAL WATER CONTENT-- SETTING EXTINCTION WATER CONTENT EQUAL TO RESIDUAL WATER CONTENT

EXTINCTION WATER CONTENT FOR CELL AT ROW     2, COLUMN     8 IS LESS THAN RESIDUAL WATER CONTENT-- SETTING EXTINCTION WATER CONTENT EQUAL TO RESIDUAL WATER CONTENT

EXTINCTION WATER CONTENT FOR CELL AT ROW     3, COLUMN     2 IS LESS THAN RESIDUAL WATER CONTENT-- SETTING EXTINCTION WATER CONTENT EQUAL TO RESIDUAL WATER CONTENT

EXTINCTION WATER CONTENT FOR CELL AT ROW     3, COLUMN     3 IS LESS THAN RESIDUAL WATER CONTENT-- SETTING EXTINCTION WATER CONTENT EQUAL TO RESIDUAL WATER CONTENT

EXTINCTION WATER CONTENT FOR CELL AT ROW     3, COLUMN     4 IS LESS THAN RESIDUAL WATER CONTENT-- SETTING EXTINCTION WATER CONTENT EQUAL TO RESIDUAL WATER CONTENT

EXTINCTION WATER CONTENT FOR CELL AT ROW     3, COLUMN     5 IS LESS THAN RESIDUAL WATER CONTENT-- SETTING EXTINCTION WATER CONTENT EQUAL TO RESIDUAL WATER CONTENT

EXTINCTION WATER CONTENT FOR CELL AT ROW     3, COLUMN     6 IS LESS THAN RESIDUAL WATER CONTENT-- SETTING EXTINCTION WATER CONTENT EQUAL TO RESIDUAL WATER CONTENT

EXTINCTION WATER CONTENT FOR CELL AT ROW     3, COLUMN     7 IS LESS THAN RESIDUAL WATER CONTENT-- SETTING EXTINCTION WATER CONTENT EQUAL TO RESIDUAL WATER CONTENT

EXTINCTION WATER CONTENT FOR CELL AT ROW     3, COLUMN     8 IS LESS THAN RESIDUAL WATER CONTENT-- SETTING EXTINCTION WATER CONTENT EQUAL TO RESIDUAL WATER CONTENT

EXTINCTION WATER CONTENT FOR CELL AT ROW     4, COLUMN     1 IS LESS THAN RESIDUAL WATER CONTENT-- SETTING EXTINCTION WATER CONTENT EQUAL TO RESIDUAL WATER CONTENT

EXTINCTION WATER CONTENT FOR CELL AT ROW     4, COLUMN     2 IS LESS THAN RESIDUAL WATER CONTENT-- SETTING EXTINCTION WATER CONTENT EQUAL TO RESIDUAL WATER CONTENT

EXTINCTION WATER CONTENT FOR CELL AT ROW     4, COLUMN     3 IS LESS THAN RESIDUAL WATER CONTENT-- SETTING EXTINCTION WATER CONTENT EQUAL TO RESIDUAL WATER CONTENT

EXTINCTION WATER CONTENT FOR CELL AT ROW     4, COLUMN     4 IS LESS THAN RESIDUAL WATER CONTENT-- SETTING EXTINCTION WATER CONTENT EQUAL TO RESIDUAL WATER CONTENT

EXTINCTION WATER CONTENT FOR CELL AT ROW     4, COLUMN     5 IS LESS THAN RESIDUAL WATER CONTENT-- SETTING EXTINCTION WATER CONTENT EQUAL TO RESIDUAL WATER CONTENT

EXTINCTION WATER CONTENT FOR CELL AT ROW     4, COLUMN     6 IS LESS THAN RESIDUAL WATER CONTENT-- SETTING EXTINCTION WATER CONTENT EQUAL TO RESIDUAL WATER CONTENT

EXTINCTION WATER CONTENT FOR CELL AT ROW     4, COLUMN     7 IS LESS THAN RESIDUAL WATER CONTENT-- SETTING EXTINCTION WATER CONTENT EQUAL TO RESIDUAL WATER CONTENT

EXTINCTION WATER CONTENT FOR CELL AT ROW     4, COLUMN     8 IS LESS THAN RESIDUAL WATER CONTENT-- SETTING EXTINCTION WATER CONTENT EQUAL TO RESIDUAL WATER CONTENT

EXTINCTION WATER CONTENT FOR CELL AT ROW     4, COLUMN     9 IS LESS THAN RESIDUAL WATER CONTENT-- SETTING EXTINCTION WATER CONTENT EQUAL TO RESIDUAL WATER CONTENT

EXTINCTION WATER CONTENT FOR CELL AT ROW     5, COLUMN     1 IS LESS THAN RESIDUAL WATER CONTENT-- SETTING EXTINCTION WATER CONTENT EQUAL TO RESIDUAL WATER CONTENT

EXTINCTION WATER CONTENT FOR CELL AT ROW     5, COLUMN     2 IS LESS THAN RESIDUAL WATER CONTENT-- SETTING EXTINCTION WATER CONTENT EQUAL TO RESIDUAL WATER CONTENT

EXTINCTION WATER CONTENT FOR CELL AT ROW     5, COLUMN     3 IS LESS THAN RESIDUAL WATER CONTENT-- SETTING EXTINCTION WATER CONTENT EQUAL TO RESIDUAL WATER CONTENT

EXTINCTION WATER CONTENT FOR CELL AT ROW     5, COLUMN     4 IS LESS THAN RESIDUAL WATER CONTENT-- SETTING EXTINCTION WATER CONTENT EQUAL TO RESIDUAL WATER CONTENT

EXTINCTION WATER CONTENT FOR CELL AT ROW     5, COLUMN     5 IS LESS THAN RESIDUAL WATER CONTENT-- SETTING EXTINCTION WATER CONTENT EQUAL TO RESIDUAL WATER CONTENT

EXTINCTION WATER CONTENT FOR CELL AT ROW     5, COLUMN     6 IS LESS THAN RESIDUAL WATER CONTENT-- SETTING EXTINCTION WATER CONTENT EQUAL TO RESIDUAL WATER CONTENT

EXTINCTION WATER CONTENT FOR CELL AT ROW     5, COLUMN     7 IS LESS THAN RESIDUAL WATER CONTENT-- SETTING EXTINCTION WATER CONTENT EQUAL TO RESIDUAL WATER CONTENT

EXTINCTION WATER CONTENT FOR CELL AT ROW     5, COLUMN     8 IS LESS THAN RESIDUAL WATER CONTENT-- SETTING EXTINCTION WATER CONTENT EQUAL TO RESIDUAL WATER CONTENT

EXTINCTION WATER CONTENT FOR CELL AT ROW     5, COLUMN     9 IS LESS THAN RESIDUAL WATER CONTENT-- SETTING EXTINCTION WATER CONTENT EQUAL TO RESIDUAL WATER CONTENT

EXTINCTION WATER CONTENT FOR CELL AT ROW     5, COLUMN    10 IS LESS THAN RESIDUAL WATER CONTENT-- SETTING EXTINCTION WATER CONTENT EQUAL TO RESIDUAL WATER CONTENT

EXTINCTION WATER CONTENT FOR CELL AT ROW     6, COLUMN     1 IS LESS THAN RESIDUAL WATER CONTENT-- SETTING EXTINCTION WATER CONTENT EQUAL TO RESIDUAL WATER CONTENT

EXTINCTION WATER CONTENT FOR CELL AT ROW     6, COLUMN     2 IS LESS THAN RESIDUAL WATER CONTENT-- SETTING EXTINCTION WATER CONTENT EQUAL TO RESIDUAL WATER CONTENT

EXTINCTION WATER CONTENT FOR CELL AT ROW     6, COLUMN     3 IS LESS THAN RESIDUAL WATER CONTENT-- SETTING EXTINCTION WATER CONTENT EQUAL TO RESIDUAL WATER CONTENT

EXTINCTION WATER CONTENT FOR CELL AT ROW     6, COLUMN     4 IS LESS THAN RESIDUAL WATER CONTENT-- SETTING EXTINCTION WATER CONTENT EQUAL TO RESIDUAL WATER CONTENT

EXTINCTION WATER CONTENT FOR CELL AT ROW     6, COLUMN     5 IS LESS THAN RESIDUAL WATER CONTENT-- SETTING EXTINCTION WATER CONTENT EQUAL TO RESIDUAL WATER CONTENT

EXTINCTION WATER CONTENT FOR CELL AT ROW     6, COLUMN     6 IS LESS THAN RESIDUAL WATER CONTENT-- SETTING EXTINCTION WATER CONTENT EQUAL TO RESIDUAL WATER CONTENT

EXTINCTION WATER CONTENT FOR CELL AT ROW     6, COLUMN     7 IS LESS THAN RESIDUAL WATER CONTENT-- SETTING EXTINCTION WATER CONTENT EQUAL TO RESIDUAL WATER CONTENT

EXTINCTION WATER CONTENT FOR CELL AT ROW     6, COLUMN     8 IS LESS THAN RESIDUAL WATER CONTENT-- SETTING EXTINCTION WATER CONTENT EQUAL TO RESIDUAL WATER CONTENT

EXTINCTION WATER CONTENT FOR CELL AT ROW     6, COLUMN     9 IS LESS THAN RESIDUAL WATER CONTENT-- SETTING EXTINCTION WATER CONTENT EQUAL TO RESIDUAL WATER CONTENT

EXTINCTION WATER CONTENT FOR CELL AT ROW     6, COLUMN    10 IS LESS THAN RESIDUAL WATER CONTENT-- SETTING EXTINCTION WATER CONTENT EQUAL TO RESIDUAL WATER CONTENT

EXTINCTION WATER CONTENT FOR CELL AT ROW     7, COLUMN     1 IS LESS THAN RESIDUAL WATER CONTENT-- SETTING EXTINCTION WATER CONTENT EQUAL TO RESIDUAL WATER CONTENT

EXTINCTION WATER CONTENT FOR CELL AT ROW     7, COLUMN     2 IS LESS THAN RESIDUAL WATER CONTENT-- SETTING EXTINCTION WATER CONTENT EQUAL TO RESIDUAL WATER CONTENT

EXTINCTION WATER CONTENT FOR CELL AT ROW     7, COLUMN     3 IS LESS THAN RESIDUAL WATER CONTENT-- SETTING EXTINCTION WATER CONTENT EQUAL TO RESIDUAL WATER CONTENT

EXTINCTION WATER CONTENT FOR CELL AT ROW     7, COLUMN     4 IS LESS THAN RESIDUAL WATER CONTENT-- SETTING EXTINCTION WATER CONTENT EQUAL TO RESIDUAL WATER CONTENT

EXTINCTION WATER CONTENT FOR CELL AT ROW     7, COLUMN     5 IS LESS THAN RESIDUAL WATER CONTENT-- SETTING EXTINCTION WATER CONTENT EQUAL TO RESIDUAL WATER CONTENT

EXTINCTION WATER CONTENT FOR CELL AT ROW     7, COLUMN     6 IS LESS THAN RESIDUAL WATER CONTENT-- SETTING EXTINCTION WATER CONTENT EQUAL TO RESIDUAL WATER CONTENT

EXTINCTION WATER CONTENT FOR CELL AT ROW     7, COLUMN     7 IS LESS THAN RESIDUAL WATER CONTENT-- SETTING EXTINCTION WATER CONTENT EQUAL TO RESIDUAL WATER CONTENT

EXTINCTION WATER CONTENT FOR CELL AT ROW     7, COLUMN     8 IS LESS THAN RESIDUAL WATER CONTENT-- SETTING EXTINCTION WATER CONTENT EQUAL TO RESIDUAL WATER CONTENT

EXTINCTION WATER CONTENT FOR CELL AT ROW     7, COLUMN     9 IS LESS THAN RESIDUAL WATER CONTENT-- SETTING EXTINCTION WATER CONTENT EQUAL TO RESIDUAL WATER CONTENT

EXTINCTION WATER CONTENT FOR CELL AT ROW     8, COLUMN     2 IS LESS THAN RESIDUAL WATER CONTENT-- SETTING EXTINCTION WATER CONTENT EQUAL TO RESIDUAL WATER CONTENT

EXTINCTION WATER CONTENT FOR CELL AT ROW     8, COLUMN     3 IS LESS THAN RESIDUAL WATER CONTENT-- SETTING EXTINCTION WATER CONTENT EQUAL TO RESIDUAL WATER CONTENT

EXTINCTION WATER CONTENT FOR CELL AT ROW     8, COLUMN     4 IS LESS THAN RESIDUAL WATER CONTENT-- SETTING EXTINCTION WATER CONTENT EQUAL TO RESIDUAL WATER CONTENT

EXTINCTION WATER CONTENT FOR CELL AT ROW     8, COLUMN     5 IS LESS THAN RESIDUAL WATER CONTENT-- SETTING EXTINCTION WATER CONTENT EQUAL TO RESIDUAL WATER CONTENT

EXTINCTION WATER CONTENT FOR CELL AT ROW     8, COLUMN     6 IS LESS THAN RESIDUAL WATER CONTENT-- SETTING EXTINCTION WATER CONTENT EQUAL TO RESIDUAL WATER CONTENT

EXTINCTION WATER CONTENT FOR CELL AT ROW     8, COLUMN     7 IS LESS THAN RESIDUAL WATER CONTENT-- SETTING EXTINCTION WATER CONTENT EQUAL TO RESIDUAL WATER CONTENT

EXTINCTION WATER CONTENT FOR CELL AT ROW     8, COLUMN     8 IS LESS THAN RESIDUAL WATER CONTENT-- SETTING EXTINCTION WATER CONTENT EQUAL TO RESIDUAL WATER CONTENT

EXTINCTION WATER CONTENT FOR CELL AT ROW     8, COLUMN     9 IS LESS THAN RESIDUAL WATER CONTENT-- SETTING EXTINCTION WATER CONTENT EQUAL TO RESIDUAL WATER CONTENT

EXTINCTION WATER CONTENT FOR CELL AT ROW     9, COLUMN     2 IS LESS THAN RESIDUAL WATER CONTENT-- SETTING EXTINCTION WATER CONTENT EQUAL TO RESIDUAL WATER CONTENT

EXTINCTION WATER CONTENT FOR CELL AT ROW     9, COLUMN     3 IS LESS THAN RESIDUAL WATER CONTENT-- SETTING EXTINCTION WATER CONTENT EQUAL TO RESIDUAL WATER CONTENT

EXTINCTION WATER CONTENT FOR CELL AT ROW     9, COLUMN     4 IS LESS THAN RESIDUAL WATER CONTENT-- SETTING EXTINCTION WATER CONTENT EQUAL TO RESIDUAL WATER CONTENT

EXTINCTION WATER CONTENT FOR CELL AT ROW     9, COLUMN     5 IS LESS THAN RESIDUAL WATER CONTENT-- SETTING EXTINCTION WATER CONTENT EQUAL TO RESIDUAL WATER CONTENT

EXTINCTION WATER CONTENT FOR CELL AT ROW     9, COLUMN     6 IS LESS THAN RESIDUAL WATER CONTENT-- SETTING EXTINCTION WATER CONTENT EQUAL TO RESIDUAL WATER CONTENT

EXTINCTION WATER CONTENT FOR CELL AT ROW     9, COLUMN     7 IS LESS THAN RESIDUAL WATER CONTENT-- SETTING EXTINCTION WATER CONTENT EQUAL TO RESIDUAL WATER CONTENT

EXTINCTION WATER CONTENT FOR CELL AT ROW     9, COLUMN     8 IS LESS THAN RESIDUAL WATER CONTENT-- SETTING EXTINCTION WATER CONTENT EQUAL TO RESIDUAL WATER CONTENT

EXTINCTION WATER CONTENT FOR CELL AT ROW     9, COLUMN     9 IS LESS THAN RESIDUAL WATER CONTENT-- SETTING EXTINCTION WATER CONTENT EQUAL TO RESIDUAL WATER CONTENT

EXTINCTION WATER CONTENT FOR CELL AT ROW    10, COLUMN     2 IS LESS THAN RESIDUAL WATER CONTENT-- SETTING EXTINCTION WATER CONTENT EQUAL TO RESIDUAL WATER CONTENT

EXTINCTION WATER CONTENT FOR CELL AT ROW    10, COLUMN     3 IS LESS THAN RESIDUAL WATER CONTENT-- SETTING EXTINCTION WATER CONTENT EQUAL TO RESIDUAL WATER CONTENT

EXTINCTION WATER CONTENT FOR CELL AT ROW    10, COLUMN     4 IS LESS THAN RESIDUAL WATER CONTENT-- SETTING EXTINCTION WATER CONTENT EQUAL TO RESIDUAL WATER CONTENT

EXTINCTION WATER CONTENT FOR CELL AT ROW    10, COLUMN     5 IS LESS THAN RESIDUAL WATER CONTENT-- SETTING EXTINCTION WATER CONTENT EQUAL TO RESIDUAL WATER CONTENT

EXTINCTION WATER CONTENT FOR CELL AT ROW    10, COLUMN     6 IS LESS THAN RESIDUAL WATER CONTENT-- SETTING EXTINCTION WATER CONTENT EQUAL TO RESIDUAL WATER CONTENT

EXTINCTION WATER CONTENT FOR CELL AT ROW    10, COLUMN     7 IS LESS THAN RESIDUAL WATER CONTENT-- SETTING EXTINCTION WATER CONTENT EQUAL TO RESIDUAL WATER CONTENT

EXTINCTION WATER CONTENT FOR CELL AT ROW    10, COLUMN     8 IS LESS THAN RESIDUAL WATER CONTENT-- SETTING EXTINCTION WATER CONTENT EQUAL TO RESIDUAL WATER CONTENT

EXTINCTION WATER CONTENT FOR CELL AT ROW    10, COLUMN     9 IS LESS THAN RESIDUAL WATER CONTENT-- SETTING EXTINCTION WATER CONTENT EQUAL TO RESIDUAL WATER CONTENT

EXTINCTION WATER CONTENT FOR CELL AT ROW    10, COLUMN    10 IS LESS THAN RESIDUAL WATER CONTENT-- SETTING EXTINCTION WATER CONTENT EQUAL TO RESIDUAL WATER CONTENT

EXTINCTION WATER CONTENT FOR CELL AT ROW    11, COLUMN     2 IS LESS THAN RESIDUAL WATER CONTENT-- SETTING EXTINCTION WATER CONTENT EQUAL TO RESIDUAL WATER CONTENT

EXTINCTION WATER CONTENT FOR CELL AT ROW    11, COLUMN     3 IS LESS THAN RESIDUAL WATER CONTENT-- SETTING EXTINCTION WATER CONTENT EQUAL TO RESIDUAL WATER CONTENT

EXTINCTION WATER CONTENT FOR CELL AT ROW    11, COLUMN     4 IS LESS THAN RESIDUAL WATER CONTENT-- SETTING EXTINCTION WATER CONTENT EQUAL TO RESIDUAL WATER CONTENT

EXTINCTION WATER CONTENT FOR CELL AT ROW    11, COLUMN     5 IS LESS THAN RESIDUAL WATER CONTENT-- SETTING EXTINCTION WATER CONTENT EQUAL TO RESIDUAL WATER CONTENT

EXTINCTION WATER CONTENT FOR CELL AT ROW    11, COLUMN     6 IS LESS THAN RESIDUAL WATER CONTENT-- SETTING EXTINCTION WATER CONTENT EQUAL TO RESIDUAL WATER CONTENT

EXTINCTION WATER CONTENT FOR CELL AT ROW    11, COLUMN     7 IS LESS THAN RESIDUAL WATER CONTENT-- SETTING EXTINCTION WATER CONTENT EQUAL TO RESIDUAL WATER CONTENT

EXTINCTION WATER CONTENT FOR CELL AT ROW    11, COLUMN     8 IS LESS THAN RESIDUAL WATER CONTENT-- SETTING EXTINCTION WATER CONTENT EQUAL TO RESIDUAL WATER CONTENT

EXTINCTION WATER CONTENT FOR CELL AT ROW    11, COLUMN     9 IS LESS THAN RESIDUAL WATER CONTENT-- SETTING EXTINCTION WATER CONTENT EQUAL TO RESIDUAL WATER CONTENT

EXTINCTION WATER CONTENT FOR CELL AT ROW    12, COLUMN     1 IS LESS THAN RESIDUAL WATER CONTENT-- SETTING EXTINCTION WATER CONTENT EQUAL TO RESIDUAL WATER CONTENT

EXTINCTION WATER CONTENT FOR CELL AT ROW    12, COLUMN     2 IS LESS THAN RESIDUAL WATER CONTENT-- SETTING EXTINCTION WATER CONTENT EQUAL TO RESIDUAL WATER CONTENT

EXTINCTION WATER CONTENT FOR CELL AT ROW    12, COLUMN     3 IS LESS THAN RESIDUAL WATER CONTENT-- SETTING EXTINCTION WATER CONTENT EQUAL TO RESIDUAL WATER CONTENT

EXTINCTION WATER CONTENT FOR CELL AT ROW    12, COLUMN     4 IS LESS THAN RESIDUAL WATER CONTENT-- SETTING EXTINCTION WATER CONTENT EQUAL TO RESIDUAL WATER CONTENT

EXTINCTION WATER CONTENT FOR CELL AT ROW    12, COLUMN     5 IS LESS THAN RESIDUAL WATER CONTENT-- SETTING EXTINCTION WATER CONTENT EQUAL TO RESIDUAL WATER CONTENT

EXTINCTION WATER CONTENT FOR CELL AT ROW    12, COLUMN     6 IS LESS THAN RESIDUAL WATER CONTENT-- SETTING EXTINCTION WATER CONTENT EQUAL TO RESIDUAL WATER CONTENT

EXTINCTION WATER CONTENT FOR CELL AT ROW    12, COLUMN     7 IS LESS THAN RESIDUAL WATER CONTENT-- SETTING EXTINCTION WATER CONTENT EQUAL TO RESIDUAL WATER CONTENT

EXTINCTION WATER CONTENT FOR CELL AT ROW    12, COLUMN     8 IS LESS THAN RESIDUAL WATER CONTENT-- SETTING EXTINCTION WATER CONTENT EQUAL TO RESIDUAL WATER CONTENT

EXTINCTION WATER CONTENT FOR CELL AT ROW    12, COLUMN     9 IS LESS THAN RESIDUAL WATER CONTENT-- SETTING EXTINCTION WATER CONTENT EQUAL TO RESIDUAL WATER CONTENT

EXTINCTION WATER CONTENT FOR CELL AT ROW    13, COLUMN     1 IS LESS THAN RESIDUAL WATER CONTENT-- SETTING EXTINCTION WATER CONTENT EQUAL TO RESIDUAL WATER CONTENT

EXTINCTION WATER CONTENT FOR CELL AT ROW    13, COLUMN     2 IS LESS THAN RESIDUAL WATER CONTENT-- SETTING EXTINCTION WATER CONTENT EQUAL TO RESIDUAL WATER CONTENT

EXTINCTION WATER CONTENT FOR CELL AT ROW    13, COLUMN     3 IS LESS THAN RESIDUAL WATER CONTENT-- SETTING EXTINCTION WATER CONTENT EQUAL TO RESIDUAL WATER CONTENT

EXTINCTION WATER CONTENT FOR CELL AT ROW    13, COLUMN     4 IS LESS THAN RESIDUAL WATER CONTENT-- SETTING EXTINCTION WATER CONTENT EQUAL TO RESIDUAL WATER CONTENT

EXTINCTION WATER CONTENT FOR CELL AT ROW    13, COLUMN     5 IS LESS THAN RESIDUAL WATER CONTENT-- SETTING EXTINCTION WATER CONTENT EQUAL TO RESIDUAL WATER CONTENT

EXTINCTION WATER CONTENT FOR CELL AT ROW    13, COLUMN     6 IS LESS THAN RESIDUAL WATER CONTENT-- SETTING EXTINCTION WATER CONTENT EQUAL TO RESIDUAL WATER CONTENT

EXTINCTION WATER CONTENT FOR CELL AT ROW    13, COLUMN     7 IS LESS THAN RESIDUAL WATER CONTENT-- SETTING EXTINCTION WATER CONTENT EQUAL TO RESIDUAL WATER CONTENT

EXTINCTION WATER CONTENT FOR CELL AT ROW    13, COLUMN     8 IS LESS THAN RESIDUAL WATER CONTENT-- SETTING EXTINCTION WATER CONTENT EQUAL TO RESIDUAL WATER CONTENT

EXTINCTION WATER CONTENT FOR CELL AT ROW    13, COLUMN     9 IS LESS THAN RESIDUAL WATER CONTENT-- SETTING EXTINCTION WATER CONTENT EQUAL TO RESIDUAL WATER CONTENT

EXTINCTION WATER CONTENT FOR CELL AT ROW    14, COLUMN     2 IS LESS THAN RESIDUAL WATER CONTENT-- SETTING EXTINCTION WATER CONTENT EQUAL TO RESIDUAL WATER CONTENT

EXTINCTION WATER CONTENT FOR CELL AT ROW    14, COLUMN     3 IS LESS THAN RESIDUAL WATER CONTENT-- SETTING EXTINCTION WATER CONTENT EQUAL TO RESIDUAL WATER CONTENT

EXTINCTION WATER CONTENT FOR CELL AT ROW    14, COLUMN     4 IS LESS THAN RESIDUAL WATER CONTENT-- SETTING EXTINCTION WATER CONTENT EQUAL TO RESIDUAL WATER CONTENT

EXTINCTION WATER CONTENT FOR CELL AT ROW    14, COLUMN     5 IS LESS THAN RESIDUAL WATER CONTENT-- SETTING EXTINCTION WATER CONTENT EQUAL TO RESIDUAL WATER CONTENT

EXTINCTION WATER CONTENT FOR CELL AT ROW    14, COLUMN     6 IS LESS THAN RESIDUAL WATER CONTENT-- SETTING EXTINCTION WATER CONTENT EQUAL TO RESIDUAL WATER CONTENT

EXTINCTION WATER CONTENT FOR CELL AT ROW    14, COLUMN     7 IS LESS THAN RESIDUAL WATER CONTENT-- SETTING EXTINCTION WATER CONTENT EQUAL TO RESIDUAL WATER CONTENT

EXTINCTION WATER CONTENT FOR CELL AT ROW    14, COLUMN     8 IS LESS THAN RESIDUAL WATER CONTENT-- SETTING EXTINCTION WATER CONTENT EQUAL TO RESIDUAL WATER CONTENT

EXTINCTION WATER CONTENT FOR CELL AT ROW    14, COLUMN     9 IS LESS THAN RESIDUAL WATER CONTENT-- SETTING EXTINCTION WATER CONTENT EQUAL TO RESIDUAL WATER CONTENT

EXTINCTION WATER CONTENT FOR CELL AT ROW    15, COLUMN     3 IS LESS THAN RESIDUAL WATER CONTENT-- SETTING EXTINCTION WATER CONTENT EQUAL TO RESIDUAL WATER CONTENT

EXTINCTION WATER CONTENT FOR CELL AT ROW    15, COLUMN     4 IS LESS THAN RESIDUAL WATER CONTENT-- SETTING EXTINCTION WATER CONTENT EQUAL TO RESIDUAL WATER CONTENT

EXTINCTION WATER CONTENT FOR CELL AT ROW    15, COLUMN     5 IS LESS THAN RESIDUAL WATER CONTENT-- SETTING EXTINCTION WATER CONTENT EQUAL TO RESIDUAL WATER CONTENT

EXTINCTION WATER CONTENT FOR CELL AT ROW    15, COLUMN     6 IS LESS THAN RESIDUAL WATER CONTENT-- SETTING EXTINCTION WATER CONTENT EQUAL TO RESIDUAL WATER CONTENT

       AIR ENTRY PRESSURE =  -1.10000    

            ROOT PRESSURE =  -75.0000    

            ROOT ACTIVITY =   1.00000    
 # AG segment list

 PROCESSING SEGMENT LIST

 FINISHED READING SEGMENT LIST
 # AG well list

 PROCESSING WELL LIST

 LAYER   ROW   COL   MAX STRESS RATE         
 --------------------------------------------
      1      1      6      4      -100.0    
      2      1      6      5      -100.0    
      3      1      7      4      -100.0    
      4      1      7      5      -100.0    
      5      1      8      4      -100.0    
      6      1      8      5      -100.0    

 FINISHED READING WELL LIST

      6 WELLS

 PROCESSING AG STRESS PERIOD DATA
 # AG stress period

 READING AG STRESS PERIOD DATA

 READING IRRIGATION SEGMENT

 READING IRRIGATION WELL

 READING SUPPLEMENTAL WELL

 END PROCESSING AG STRESS PERIOD DATA OPTIONS
 
 SOLVING FOR HEAD 
                                                   Max.-Head-Change                         Max.-Flux-Residual
  Residual-Control   Outer-Iter.   Inner-Iter.     Column Row Layer    Maximum-Head-Change  Column Row Layer    Maximum-Flux-Residual          L2-NORM 
          0                 1           6             2    2     1      -0.2843914191E+02       3    3    1        -0.3360741367E+01      0.9336255202E+01
          0                 2           6             1    1     1      -0.3130416779E+02       1   13    1        -0.6347781745E+02      0.6369041869E+02
          0                 3           5             1    1     1      -0.1456238505E+01       6   13    1        -0.2214092883E+01      0.3433615922E+01
          0                 4           5             5   13     1      -0.1645980091E+00       5   13    1        -0.3292041480E+00      0.3977240951E+00
          0                 5           4             5   14     1       0.3281686166E-01       5   13    1         0.1669597068E-01      0.2767752842E-01
          0                 6           2             5   14     1      -0.1281592110E-02       5   13    1        -0.6694907493E-03      0.2031367476E-02
          0                 7           1             5   10     1       0.1514216708E-04       5   10    1         0.2520492239E-04      0.8039520649E-04

    ------------------------------------------------
       NWT REQUIRED            7 OUTER ITERATIONS 
       AND A TOTAL OF         29 INNER ITERATIONS.
    ------------------------------------------------

 OUTPUT CONTROL FOR STRESS PERIOD    1   TIME STEP    1
    PRINT BUDGET
    PRINT HEAD FOR ALL LAYERS
    SAVE BUDGET
    SAVE HEAD FOR ALL LAYERS
 UBDSV2 SAVING "   CONSTANT HEAD" ON UNIT 102 AT TIME STEP  1, STRESS PERIOD   1
 UBDSV1 SAVING "FLOW RIGHT FACE " ON UNIT 102 AT TIME STEP  1, STRESS PERIOD   1
 UBDSV1 SAVING "FLOW FRONT FACE " ON UNIT 102 AT TIME STEP  1, STRESS PERIOD   1

  HEAD DEP BOUNDS   PERIOD    1   STEP     1
 BOUNDARY      1   LAYER   1   ROW    13   COL     1   RATE   -0.287059    
 BOUNDARY      2   LAYER   1   ROW    14   COL     9   RATE    0.285620    



 STREAM LISTING     PERIOD      1   STEP        1

 LAYER ROW COL. STREAM  RCH.  FLOW INTO     FLOW TO   FLOW OUT OF   OVRLND.     DIRECT     STREAM       STREAM     STREAM     STREAM   STREAMBED  STREAMBED
                SEG.NO.  NO.  STRM. RCH.    AQUIFER    STRM. RCH.    RUNOFF     PRECIP       ET          HEAD       DEPTH      WIDTH   CONDCTNC.   GRADIENT

   1    1    1     1     1    3.7500E+00  8.5597E-02   3.6644E+00  0.000E+00  0.000E+00  0.000E+00  1.09373E+03  6.817E-01  5.166E+00  2.325E-02  1.227E+00
   1    2    2     1     2    3.6644E+00  1.3158E-01   3.5328E+00  0.000E+00  0.000E+00  0.000E+00  1.08873E+03  6.747E-01  5.115E+00  3.581E-02  1.225E+00
   1    3    3     1     3    3.5328E+00  1.1125E-01   3.4216E+00  0.000E+00  0.000E+00  0.000E+00  1.08309E+03  6.667E-01  5.057E+00  3.034E-02  1.222E+00
   1    3    4     1     4    3.4216E+00  1.0164E-01   3.3199E+00  0.000E+00  0.000E+00  0.000E+00  1.07807E+03  6.595E-01  5.004E+00  2.777E-02  1.220E+00
   1    4    5     2     1    1.3199E+00  2.4920E-01   1.0707E+00  0.000E+00  0.000E+00  0.000E+00  1.07213E+03  1.948E-01  1.200E+01  7.800E-02  1.065E+00
   1    5    6     2     2    1.0707E+00  1.9035E-01   8.8040E-01  0.000E+00  0.000E+00  0.000E+00  1.06668E+03  1.725E-01  1.200E+01  6.000E-02  1.057E+00
   1    6    6     2     3    8.8040E-01  1.8909E-01   6.9131E-01  0.000E+00  0.000E+00  0.000E+00  1.06194E+03  1.515E-01  1.200E+01  6.000E-02  1.050E+00
   1    7    6     2     4    6.9131E-01  1.8771E-01   5.0360E-01  0.000E+00  0.000E+00  0.000E+00  1.05720E+03  1.285E-01  1.200E+01  6.000E-02  1.043E+00
   1    8    6     2     5    5.0360E-01  1.8616E-01   3.1744E-01  0.000E+00  0.000E+00  0.000E+00  1.05246E+03  1.026E-01  1.200E+01  6.000E-02  1.034E+00
   1    3    5     3     1    2.0000E+00  2.8252E-01   1.7175E+00  0.000E+00  0.000E+00  0.000E+00  1.07555E+03  1.909E+00  9.636E+00  7.227E-02  1.955E+00
   1    3    6     3     2    1.7175E+00  2.4905E-01   1.4684E+00  0.000E+00  0.000E+00  0.000E+00  1.07264E+03  1.727E+00  8.909E+00  6.682E-02  1.864E+00
   1    3    7     3     3    1.4684E+00  1.9718E-01   1.2712E+00  0.000E+00  0.000E+00  0.000E+00  1.06987E+03  1.555E+00  8.218E+00  5.547E-02  1.777E+00
   1    4    8     3     4    1.2712E+00  2.2567E-01   1.0456E+00  0.000E+00  0.000E+00  0.000E+00  1.06682E+03  1.364E+00  7.455E+00  6.709E-02  1.682E+00
   1    5    8     3     5    1.0456E+00  1.5790E-01   8.8768E-01  0.000E+00  0.000E+00  0.000E+00  1.06362E+03  1.164E+00  6.655E+00  4.991E-02  1.582E+00
   1    6    8     3     6    8.8768E-01  5.5980E-02   8.3170E-01  0.000E+00  0.000E+00  0.000E+00  1.06158E+03  1.036E+00  6.145E+00  1.844E-02  1.518E+00
   1    5   10     4     1    1.0000E+01  9.0919E-02   9.9091E+00  0.000E+00  0.000E+00  0.000E+00  1.07836E+03  6.368E-01  1.000E+01  2.500E-02  1.212E+00
   1    5    9     4     2    9.9091E+00  1.8158E-01   9.7275E+00  0.000E+00  0.000E+00  0.000E+00  1.07154E+03  6.315E-01  1.000E+01  5.000E-02  1.211E+00
   1    6    8     4     3    9.7275E+00  1.2689E-01   9.6006E+00  0.000E+00  0.000E+00  0.000E+00  1.06381E+03  6.256E-01  1.000E+01  3.500E-02  1.209E+00
   1    6    8     5     1    1.0432E+01  2.2686E-01   1.0205E+01  0.000E+00  0.000E+00  0.000E+00  1.05868E+03  6.790E-01  1.542E+01  6.166E-02  1.226E+00
   1    7    7     5     2    1.0205E+01  2.7894E-01   9.9265E+00  0.000E+00  0.000E+00  0.000E+00  1.05417E+03  6.732E-01  1.519E+01  7.594E-02  1.224E+00
   1    8    7     5     3    9.9265E+00  1.9221E-01   9.7343E+00  0.000E+00  0.000E+00  0.000E+00  1.04992E+03  6.676E-01  1.497E+01  5.241E-02  1.223E+00
   1    8    6     5     4    9.7343E+00  1.3577E-01   9.5985E+00  0.000E+00  0.000E+00  0.000E+00  1.04691E+03  6.637E-01  1.482E+01  3.706E-02  1.221E+00
   1    9    6     6     1    9.9160E+00  2.2178E-01   9.6942E+00  0.000E+00  0.000E+00  0.000E+00  1.04342E+03  6.964E-01  1.200E+01  6.000E-02  1.232E+00
   1   10    7     6     2    9.6942E+00  2.2121E-01   9.4730E+00  0.000E+00  0.000E+00  0.000E+00  1.03887E+03  6.869E-01  1.200E+01  6.000E-02  1.229E+00
   1   11    7     6     3    9.4730E+00  2.2064E-01   9.2523E+00  0.000E+00  0.000E+00  0.000E+00  1.03431E+03  6.773E-01  1.200E+01  6.000E-02  1.226E+00
   1   12    7     6     4    9.2523E+00  2.2006E-01   9.0323E+00  0.000E+00  0.000E+00  0.000E+00  1.02976E+03  6.677E-01  1.200E+01  6.000E-02  1.223E+00
   1   13    7     6     5    9.0323E+00 -1.1354E-01   9.1458E+00  0.000E+00  0.000E+00  0.000E+00  1.02657E+03  6.654E-01  1.200E+01  2.400E-01 -1.577E-01
   1   14    9     7     1    1.5000E+02  1.3338E+00   1.4867E+02  0.000E+00  0.000E+00  0.000E+00  1.03987E+03  2.288E+00  5.529E+01  5.593E-01  7.949E-01
   1   13    8     7     2    1.4867E+02  1.8355E+00   1.4683E+02  0.000E+00  0.000E+00  0.000E+00  1.03478E+03  2.279E+00  5.526E+01  6.148E-01  9.952E-01
   1   13    7     7     3    1.4683E+02  1.4756E+00   1.4536E+02  0.000E+00  0.000E+00  0.000E+00  1.02969E+03  2.270E+00  5.522E+01  5.585E-01  8.807E-01
   1   13    6     8     1    1.5450E+02  8.2944E-01   1.5367E+02  0.000E+00  0.000E+00  0.000E+00  1.02472E+03  2.845E+00  4.126E+01  4.204E-01  6.576E-01
   1   13    5     8     2    1.5367E+02  1.0127E-01   1.5357E+02  0.000E+00  0.000E+00  0.000E+00  1.01847E+03  2.842E+00  4.121E+01  4.200E-01  8.038E-02
   1   13    4     8     3    1.5357E+02 -2.6792E+00   1.5625E+02  0.000E+00  0.000E+00  0.000E+00  1.01223E+03  2.851E+00  4.134E+01  4.213E+00 -2.120E-01
   1   13    3     8     4    1.5625E+02 -3.7567E+00   1.6001E+02  0.000E+00  0.000E+00  0.000E+00  1.00600E+03  2.873E+00  4.166E+01  4.245E+00 -2.950E-01
   1   13    2     8     5    1.6001E+02 -2.6055E+00   1.6261E+02  0.000E+00  0.000E+00  0.000E+00  9.99770E+02  2.895E+00  4.197E+01  4.277E+00 -2.031E-01
   1   13    1     8     6    1.6261E+02 -1.9843E+00   1.6460E+02  0.000E+00  0.000E+00  0.000E+00  9.94785E+02  2.910E+00  4.220E+01  2.580E+00 -2.564E-01
   1    8    6     9     1    0.0000E+00  0.0000E+00   0.0000E+00  0.000E+00  0.000E+00  0.000E+00  1.07875E+03  0.000E+00  4.000E+00  0.000E+00  1.000E+00
   1    8    5     9     2    0.0000E+00  0.0000E+00   0.0000E+00  0.000E+00  0.000E+00  0.000E+00  1.07825E+03  0.000E+00  4.000E+00  0.000E+00  1.000E+00



 UBDSV3 SAVING "           GW ET" ON UNIT  61 AT TIME STEP  1, STRESS PERIOD   1
 UBDSV3 SAVING "    UZF RECHARGE" ON UNIT  61 AT TIME STEP  1, STRESS PERIOD   1
 UBDSV3 SAVING " SURFACE LEAKAGE" ON UNIT  61 AT TIME STEP  1, STRESS PERIOD   1
 UBDSV3 SAVING "       HORT+DUNN" ON UNIT  61 AT TIME STEP  1, STRESS PERIOD   1
 UBDSV3 SAVING "  STORAGE CHANGE" ON UNIT  61 AT TIME STEP  1, STRESS PERIOD   1


UNSATURATED ZONE PACKAGE VOLUMETRIC BUDGET FOR  TIME STEP     1 STRESS PERIOD    1
  ------------------------------------------------------------------------------



     CUMULATIVE VOLUMES      L**3       RATES FOR THIS TIME STEP      L**3/T
     ------------------                 ------------------------

           IN:                                      IN:
           ---                                      ---
        INFILTRATION =       73224.0000          INFILTRATION =           0.8475

          OUT:                                     OUT:
          ----                                     ----
              UZF ET =       0.0000E+00                UZF ET =       0.0000E+00
        UZF RECHARGE =       73224.0000          UZF RECHARGE =           0.8475

            IN - OUT =       0.0000E+00              IN - OUT =       0.0000E+00

          STORAGE:                                 STORAGE:
          --------                                 --------
      STORAGE CHANGE =       0.0000E+00        STORAGE CHANGE =       0.0000E+00

 PERCENT DISCREPANCY IS DIFFERENCE BETWEEN IN-OUT MINUS CHANGE IN STORAGE
 DIVIDED BY THE AVERAGE OF IN AND OUT TIMES 100

 PERCENT DISCREPANCY =           0.00     PERCENT DISCREPANCY =           0.00






 

        AG WELLS          PERIOD    1   STEP   1
 AG WELL      1   LAYER   1   ROW     6   COL     4   RATE     0.00000    
 AG WELL      2   LAYER   1   ROW     6   COL     5   RATE     0.00000    
 AG WELL      3   LAYER   1   ROW     7   COL     4   RATE     0.00000    
 AG WELL      4   LAYER   1   ROW     7   COL     5   RATE     0.00000    
 AG WELL      5   LAYER   1   ROW     8   COL     4   RATE     0.00000    
 AG WELL      6   LAYER   1   ROW     8   COL     5   RATE     0.00000    
 
 

   DIVERSION SEGMENTS     PERIOD    1   STEP   1
 
 

        SW IRRIGATION     PERIOD    1   STEP   1
 
 

        GW IRRIGATION     PERIOD    1   STEP   1
 
1
  VOLUMETRIC BUDGET FOR AGRICULTURAL FIELDS AT  END OF TIME STEP    1, STRESS PERIOD   1
  ------------------------------------------------------------------------------

     CUMULATIVE VOLUMES      L**3       RATES FOR THIS TIME STEP      L**3/T
     ------------------                 ------------------------

           IN:                                      IN:
           ---                                      ---
           AG WELLS      =           0.0000             AG WELLS      =           0.0000
      DIVERSION SEGMENTS =           0.0000        DIVERSION SEGMENTS =           0.0000
           GW IRRIGATION =           0.0000             GW IRRIGATION =           0.0000
           SW IRRIGATION =           0.0000             SW IRRIGATION =           0.0000
        SYSTEM LOSSES GW =           0.0000          SYSTEM LOSSES GW =           0.0000
        SYSTEM LOSSES SW =           0.0000          SYSTEM LOSSES SW =           0.0000

                TOTAL IN =           0.0000                  TOTAL IN =           0.0000

          OUT:                                     OUT:
          ----                                     ----
           AG WELLS      =           0.0000             AG WELLS      =           0.0000
      DIVERSION SEGMENTS =           0.0000        DIVERSION SEGMENTS =           0.0000
           GW IRRIGATION =           0.0000             GW IRRIGATION =           0.0000
           SW IRRIGATION =           0.0000             SW IRRIGATION =           0.0000
        SYSTEM LOSSES GW =           0.0000          SYSTEM LOSSES GW =           0.0000
        SYSTEM LOSSES SW =           0.0000          SYSTEM LOSSES SW =           0.0000

               TOTAL OUT =           0.0000                 TOTAL OUT =           0.0000

                IN - OUT =           0.0000                  IN - OUT =           0.0000

     PERCENT DISCREPANCY =           0.00         PERCENT DISCREPANCY =           0.00



1
              HEAD IN LAYER   1 AT END OF TIME STEP   1 IN STRESS PERIOD    1
  ---------------------------------------------------------------------------

           1       2       3       4       5       6       7       8       9      10
 ...................................................................................
   1  1032.36 1031.32 6999.00 6999.00 6999.00 6999.00 6999.00 6999.00 6999.00 6999.00
   2  1031.40 1030.17 1029.58 6999.00 6999.00 1030.68 1030.83 1030.79 6999.00 6999.00
   3  6999.00 1029.27 1028.96 1028.73 1029.28 1029.91 1030.40 1030.37 6999.00 6999.00
   4  1028.57 1028.53 1028.35 1028.17 1028.24 1028.30 1028.78 1029.83 1029.56 6999.00
   5  1028.13 1027.76 1027.59 1027.51 1027.61 1027.82 1027.99 1028.47 1029.10 1029.63
   6  1027.57 1027.02 1026.83 1026.81 1026.93 1027.26 1027.55 1028.08 1028.52 1029.45
   7  1027.07 1026.08 1025.92 1025.96 1026.14 1026.55 1026.98 1027.45 1027.96 6999.00
   8  6999.00 1024.71 1024.75 1024.91 1025.15 1025.65 1026.08 1026.80 1027.36 6999.00
   9  6999.00 1022.70 1023.03 1023.48 1023.88 1024.53 1025.05 1025.79 1026.91 6999.00
  10  6999.00 1019.87 1020.64 1021.69 1022.47 1023.49 1024.39 1025.46 1027.07 1027.71
  11  6999.00 1015.35 1016.78 1019.32 1020.96 1022.69 1024.22 1026.00 1028.19 6999.00
  12  1001.91 1007.94 1012.08 1016.04 1019.32 1022.30 1024.79 1028.19 1031.18 6999.00
  13   995.55 1000.38 1006.88 1012.86 1018.23 1022.75 1027.05 1031.79 1034.63 6999.00
  14  6999.00 1005.79 1008.88 1013.53 1018.29 1022.70 1027.60 1033.07 1037.48 6999.00
  15  6999.00 6999.00 1012.52 1015.24 1018.71 1021.73 6999.00 6999.00 6999.00 6999.00

 HEAD WILL BE SAVED ON UNIT   62 AT END OF TIME STEP    1, STRESS PERIOD    1
1
  VOLUMETRIC BUDGET FOR ENTIRE MODEL AT END OF TIME STEP    1, STRESS PERIOD   1
  ------------------------------------------------------------------------------

     CUMULATIVE VOLUMES      L**3       RATES FOR THIS TIME STEP      L**3/T
     ------------------                 ------------------------

           IN:                                      IN:
           ---                                      ---
             STORAGE     =           0.0000               STORAGE     =           0.0000
       CONSTANT HEAD     =           0.0000         CONSTANT HEAD     =           0.0000
     HEAD DEP BOUNDS     =       24677.5273       HEAD DEP BOUNDS     =           0.2856
      STREAM LEAKAGE     =      889333.8125        STREAM LEAKAGE     =          10.2932
        UZF RECHARGE     =       73223.9531          UZF RECHARGE     =           0.8475
               GW ET     =           0.0000                 GW ET     =           0.0000
     SURFACE LEAKAGE     =           0.0000       SURFACE LEAKAGE     =           0.0000
           AG WELLS      =           0.0000             AG WELLS      =           0.0000

                TOTAL IN =      987235.2500                  TOTAL IN =          11.4263

          OUT:                                     OUT:
          ----                                     ----
             STORAGE     =           0.0000               STORAGE     =           0.0000
       CONSTANT HEAD     =           0.0000         CONSTANT HEAD     =           0.0000
     HEAD DEP BOUNDS     =       24801.8652       HEAD DEP BOUNDS     =           0.2871
      STREAM LEAKAGE     =      962433.3125        STREAM LEAKAGE     =          11.1393
        UZF RECHARGE     =           0.0000          UZF RECHARGE     =           0.0000
               GW ET     =           0.0000                 GW ET     =           0.0000
     SURFACE LEAKAGE     =           0.0000       SURFACE LEAKAGE     =           0.0000
           AG WELLS      =           0.0000             AG WELLS      =           0.0000

               TOTAL OUT =      987235.1875                 TOTAL OUT =          11.4263

                IN - OUT =       6.2500E-02                  IN - OUT =       1.9073E-06

     PERCENT DISCREPANCY =           0.00         PERCENT DISCREPANCY =           0.00






         TIME SUMMARY AT END OF TIME STEP    1 IN STRESS PERIOD    1
                    SECONDS     MINUTES      HOURS       DAYS        YEARS
                    -----------------------------------------------------------
   TIME STEP LENGTH  86400.      1440.0      24.000      1.0000     2.73785E-03
 STRESS PERIOD TIME  86400.      1440.0      24.000      1.0000     2.73785E-03
         TOTAL TIME  86400.      1440.0      24.000      1.0000     2.73785E-03
1
1
                            STRESS PERIOD NO.    2, LENGTH =   2630000.    
                            -----------------------------------------------

                              NUMBER OF TIME STEPS =    30

                               MULTIPLIER FOR DELT =     1.000

                            INITIAL TIME STEP SIZE =   87666.66    

 REUSING NON-PARAMETER GHB CELLS FROM LAST STRESS PERIOD

      2 GHB CELLS

 REUSING STREAM SEGMENT DATA FROM LAST STRESS PERIOD



            AREAL INFILTRATION RATE
 READING ON UNIT   19 WITH FORMAT: (FREE)              

            1           2           3           4           5           6           7           8           9          10
 ........................................................................................................................
   1   1.0000E-10  2.0000E-10   0.000       0.000       0.000       0.000       0.000       0.000       0.000       0.000    
   2   2.0000E-10  1.0000E-10  2.0000E-10   0.000       0.000      8.0000E-10  8.0000E-10  5.0000E-10   0.000       0.000    
   3    0.000      5.0000E-10  1.0000E-10  1.0000E-10  8.0000E-10  8.0000E-10  5.0000E-10  5.0000E-10   0.000       0.000    
   4   8.0000E-10  5.0000E-10  1.0000E-10  1.0000E-10  1.0000E-10  1.0000E-10  1.0000E-10  1.0000E-10  2.0000E-10   0.000    
   5   8.0000E-10  5.0000E-10  1.0000E-10  1.0000E-10  1.0000E-10  1.0000E-10  1.0000E-10  1.0000E-10  1.0000E-10  1.0000E-10
   6   8.0000E-10  5.0000E-10  5.0000E-10  2.0000E-10  2.0000E-10  1.0000E-10  1.0000E-10  1.0000E-10  1.0000E-10  5.0000E-10
   7   8.0000E-10  5.0000E-10  5.0000E-10  2.0000E-10  2.0000E-10  1.0000E-10  1.0000E-10  2.0000E-10  2.0000E-10   0.000    
   8    0.000      5.0000E-10  5.0000E-10  2.0000E-10  2.0000E-10  1.0000E-10  1.0000E-10  2.0000E-10  5.0000E-10   0.000    
   9    0.000      5.0000E-10  5.0000E-10  2.0000E-10  2.0000E-10  1.0000E-10  1.0000E-10  2.0000E-10  5.0000E-10   0.000    
  10    0.000      5.0000E-10  5.0000E-10  2.0000E-10  2.0000E-10  1.0000E-10  1.0000E-10  2.0000E-10  5.0000E-10  8.0000E-10
  11    0.000      1.0000E-10  1.0000E-10  1.0000E-10  1.0000E-10  1.0000E-10  1.0000E-10  2.0000E-10  5.0000E-10   0.000    
  12   1.0000E-10  1.0000E-10  1.0000E-10  1.0000E-10  1.0000E-10  1.0000E-10  1.0000E-10  1.0000E-10  2.0000E-10   0.000    
  13   1.0000E-10  1.0000E-10  2.0000E-10  2.0000E-10  2.0000E-10  2.0000E-10  2.0000E-10  1.0000E-10  1.0000E-10   0.000    
  14    0.000      2.0000E-10  5.0000E-10  5.0000E-10  5.0000E-10  5.0000E-10  5.0000E-10  2.0000E-10  1.0000E-10   0.000    
  15    0.000       0.000      8.0000E-10  8.0000E-10  8.0000E-10  8.0000E-10   0.000       0.000       0.000       0.000    

                  ET RATE =  5.000000E-10

 USING ET EXTINCTION DEPTH FROM PREVIOUS STRESS PERIOD. CURRENT PERIOD IS:       2

 USING EXTINCTION WATER CONTENT FROM PREVIOUS STRESS PERIOD. CURRENT PERIOD IS:       2

 USING AIR ENTRY PRESSURE FROM PREVIOUS STRESS PERIOD. CURRENT PERIOD IS:       2

 USING ROOT PRESSURE HEAD FROM PREVIOUS STRESS PERIOD. CURRENT PERIOD IS:       2

 USING ROOT ACTIVITY FROM PREVIOUS STRESS PERIOD. CURRENT PERIOD IS:       2

 PROCESSING AG STRESS PERIOD DATA

 READING AG STRESS PERIOD DATA

 READING IRRIGATION SEGMENT

 READING IRRIGATION WELL

 READING SUPPLEMENTAL WELL

 END PROCESSING AG STRESS PERIOD DATA OPTIONS
 
 SOLVING FOR HEAD 
                                                   Max.-Head-Change                         Max.-Flux-Residual
  Residual-Control   Outer-Iter.   Inner-Iter.     Column Row Layer    Maximum-Head-Change  Column Row Layer    Maximum-Flux-Residual          L2-NORM 
          0                 1           2             4   13     1       0.4516090521E-02       4   13    1         0.2587981320E+00      0.5589996200E+00
          0                 2           2             4   13     1      -0.4346343863E-03       4   13    1        -0.2560894401E-01      0.5485536502E-01
          0                 3           1             4   13     1       0.2895109903E-04       4   13    1         0.1753708056E-02      0.3737779858E-02

    ------------------------------------------------
       NWT REQUIRED            3 OUTER ITERATIONS 
       AND A TOTAL OF          5 INNER ITERATIONS.
    ------------------------------------------------

 OUTPUT CONTROL FOR STRESS PERIOD    2   TIME STEP    1
    PRINT BUDGET
    PRINT HEAD FOR ALL LAYERS
    SAVE BUDGET
 UBDSV1 SAVING "         STORAGE" ON UNIT 102 AT TIME STEP  1, STRESS PERIOD   2
 UBDSV2 SAVING "   CONSTANT HEAD" ON UNIT 102 AT TIME STEP  1, STRESS PERIOD   2
 UBDSV1 SAVING "FLOW RIGHT FACE " ON UNIT 102 AT TIME STEP  1, STRESS PERIOD   2
 UBDSV1 SAVING "FLOW FRONT FACE " ON UNIT 102 AT TIME STEP  1, STRESS PERIOD   2

  HEAD DEP BOUNDS   PERIOD    2   STEP     1
 BOUNDARY      1   LAYER   1   ROW    13   COL     1   RATE   -0.287146    
 BOUNDARY      2   LAYER   1   ROW    14   COL     9   RATE    0.285621    



 STREAM LISTING     PERIOD      2   STEP        1

 LAYER ROW COL. STREAM  RCH.  FLOW INTO     FLOW TO   FLOW OUT OF   OVRLND.     DIRECT     STREAM       STREAM     STREAM     STREAM   STREAMBED  STREAMBED
                SEG.NO.  NO.  STRM. RCH.    AQUIFER    STRM. RCH.    RUNOFF     PRECIP       ET          HEAD       DEPTH      WIDTH   CONDCTNC.   GRADIENT

   1    1    1     1     1    1.6500E+01  1.9759E-01   1.6302E+01  0.000E+00  0.000E+00  0.000E+00  1.09409E+03  1.039E+00  1.087E+01  4.893E-02  1.346E+00
   1    2    2     1     2    1.6302E+01  3.0466E-01   1.5998E+01  0.000E+00  0.000E+00  0.000E+00  1.08909E+03  1.034E+00  1.079E+01  7.552E-02  1.345E+00
   1    3    3     1     3    1.5998E+01  2.5853E-01   1.5739E+01  0.000E+00  0.000E+00  0.000E+00  1.08345E+03  1.029E+00  1.070E+01  6.417E-02  1.343E+00
   1    3    4     1     4    1.5739E+01  2.3700E-01   1.5502E+01  0.000E+00  0.000E+00  0.000E+00  1.07843E+03  1.024E+00  1.061E+01  5.889E-02  1.341E+00
   1    4    5     2     1    1.3502E+01  2.9865E-01   1.3204E+01  0.000E+00  0.000E+00  0.000E+00  1.07276E+03  8.289E-01  1.200E+01  7.800E-02  1.276E+00
   1    5    6     2     2    1.3204E+01  2.2914E-01   1.2974E+01  0.000E+00  0.000E+00  0.000E+00  1.06733E+03  8.190E-01  1.200E+01  6.000E-02  1.273E+00
   1    6    6     2     3    1.2974E+01  2.2862E-01   1.2746E+01  0.000E+00  0.000E+00  0.000E+00  1.06260E+03  8.104E-01  1.200E+01  6.000E-02  1.270E+00
   1    7    6     2     4    1.2746E+01  2.2810E-01   1.2518E+01  0.000E+00  0.000E+00  0.000E+00  1.05788E+03  8.017E-01  1.200E+01  6.000E-02  1.267E+00
   1    8    6     2     5    1.2518E+01  2.2758E-01   1.2290E+01  0.000E+00  0.000E+00  0.000E+00  1.05315E+03  7.930E-01  1.200E+01  6.000E-02  1.264E+00
   1    3    5     3     1    2.0000E+00  2.8252E-01   1.7175E+00  0.000E+00  0.000E+00  0.000E+00  1.07555E+03  1.909E+00  9.636E+00  7.227E-02  1.955E+00
   1    3    6     3     2    1.7175E+00  2.4905E-01   1.4684E+00  0.000E+00  0.000E+00  0.000E+00  1.07264E+03  1.727E+00  8.909E+00  6.682E-02  1.864E+00
   1    3    7     3     3    1.4684E+00  1.9718E-01   1.2712E+00  0.000E+00  0.000E+00  0.000E+00  1.06987E+03  1.555E+00  8.218E+00  5.547E-02  1.777E+00
   1    4    8     3     4    1.2712E+00  2.2567E-01   1.0456E+00  0.000E+00  0.000E+00  0.000E+00  1.06682E+03  1.364E+00  7.455E+00  6.709E-02  1.682E+00
   1    5    8     3     5    1.0456E+00  1.5790E-01   8.8768E-01  0.000E+00  0.000E+00  0.000E+00  1.06362E+03  1.164E+00  6.655E+00  4.991E-02  1.582E+00
   1    6    8     3     6    8.8768E-01  5.5980E-02   8.3170E-01  0.000E+00  0.000E+00  0.000E+00  1.06158E+03  1.036E+00  6.145E+00  1.844E-02  1.518E+00
   1    5   10     4     1    1.0000E+01  9.0919E-02   9.9091E+00  0.000E+00  0.000E+00  0.000E+00  1.07836E+03  6.368E-01  1.000E+01  2.500E-02  1.212E+00
   1    5    9     4     2    9.9091E+00  1.8158E-01   9.7275E+00  0.000E+00  0.000E+00  0.000E+00  1.07154E+03  6.315E-01  1.000E+01  5.000E-02  1.211E+00
   1    6    8     4     3    9.7275E+00  1.2689E-01   9.6006E+00  0.000E+00  0.000E+00  0.000E+00  1.06381E+03  6.256E-01  1.000E+01  3.500E-02  1.209E+00
   1    6    8     5     1    1.0432E+01  2.2686E-01   1.0205E+01  0.000E+00  0.000E+00  0.000E+00  1.05868E+03  6.790E-01  1.542E+01  6.166E-02  1.226E+00
   1    7    7     5     2    1.0205E+01  2.7894E-01   9.9265E+00  0.000E+00  0.000E+00  0.000E+00  1.05417E+03  6.732E-01  1.519E+01  7.594E-02  1.224E+00
   1    8    7     5     3    9.9265E+00  1.9221E-01   9.7343E+00  0.000E+00  0.000E+00  0.000E+00  1.04992E+03  6.676E-01  1.497E+01  5.241E-02  1.223E+00
   1    8    6     5     4    9.7343E+00  1.3577E-01   9.5985E+00  0.000E+00  0.000E+00  0.000E+00  1.04691E+03  6.637E-01  1.482E+01  3.706E-02  1.221E+00
   1    9    6     6     1    2.1889E+01  2.4742E-01   2.1641E+01  0.000E+00  0.000E+00  0.000E+00  1.04385E+03  1.124E+00  1.200E+01  6.000E-02  1.375E+00
   1   10    7     6     2    2.1641E+01  2.4696E-01   2.1394E+01  0.000E+00  0.000E+00  0.000E+00  1.03930E+03  1.116E+00  1.200E+01  6.000E-02  1.372E+00
   1   11    7     6     3    2.1394E+01  2.4650E-01   2.1148E+01  0.000E+00  0.000E+00  0.000E+00  1.03474E+03  1.108E+00  1.200E+01  6.000E-02  1.369E+00
   1   12    7     6     4    2.1148E+01  2.4603E-01   2.0902E+01  0.000E+00  0.000E+00  0.000E+00  1.03019E+03  1.101E+00  1.200E+01  6.000E-02  1.367E+00
   1   13    7     6     5    2.0902E+01 -1.0396E-02   2.0912E+01  0.000E+00  0.000E+00  0.000E+00  1.02701E+03  1.097E+00  1.200E+01  2.400E-01 -1.444E-02
   1   14    9     7     1    1.5000E+02  1.3338E+00   1.4867E+02  0.000E+00  0.000E+00  0.000E+00  1.03987E+03  2.288E+00  5.529E+01  5.593E-01  7.949E-01
   1   13    8     7     2    1.4867E+02  1.8355E+00   1.4683E+02  0.000E+00  0.000E+00  0.000E+00  1.03478E+03  2.279E+00  5.526E+01  6.148E-01  9.952E-01
   1   13    7     7     3    1.4683E+02  1.4746E+00   1.4536E+02  0.000E+00  0.000E+00  0.000E+00  1.02969E+03  2.270E+00  5.522E+01  5.585E-01  8.802E-01
   1   13    6     8     1    1.6627E+02  8.8653E-01   1.6538E+02  0.000E+00  0.000E+00  0.000E+00  1.02480E+03  2.925E+00  4.241E+01  4.322E-01  6.838E-01
   1   13    5     8     2    1.6538E+02  1.3805E-01   1.6524E+02  0.000E+00  0.000E+00  0.000E+00  1.01855E+03  2.921E+00  4.236E+01  4.317E-01  1.066E-01
   1   13    4     8     3    1.6524E+02 -2.4329E+00   1.6768E+02  0.000E+00  0.000E+00  0.000E+00  1.01230E+03  2.929E+00  4.247E+01  4.328E+00 -1.874E-01
   1   13    3     8     4    1.6768E+02 -3.5424E+00   1.7122E+02  0.000E+00  0.000E+00  0.000E+00  1.00607E+03  2.949E+00  4.275E+01  4.357E+00 -2.710E-01
   1   13    2     8     5    1.7122E+02 -2.3687E+00   1.7359E+02  0.000E+00  0.000E+00  0.000E+00  9.99843E+02  2.968E+00  4.303E+01  4.385E+00 -1.800E-01
   1   13    1     8     6    1.7359E+02 -1.8506E+00   1.7544E+02  0.000E+00  0.000E+00  0.000E+00  9.94856E+02  2.981E+00  4.323E+01  2.643E+00 -2.334E-01
   1    8    6     9     1    0.0000E+00  0.0000E+00   0.0000E+00  0.000E+00  0.000E+00  0.000E+00  1.07875E+03  0.000E+00  4.000E+00  0.000E+00  1.000E+00
   1    8    5     9     2    0.0000E+00  0.0000E+00   0.0000E+00  0.000E+00  0.000E+00  0.000E+00  1.07825E+03  0.000E+00  4.000E+00  0.000E+00  1.000E+00



 UBDSV3 SAVING "           GW ET" ON UNIT  61 AT TIME STEP  1, STRESS PERIOD   2
 UBDSV3 SAVING "    UZF RECHARGE" ON UNIT  61 AT TIME STEP  1, STRESS PERIOD   2
 UBDSV3 SAVING " SURFACE LEAKAGE" ON UNIT  61 AT TIME STEP  1, STRESS PERIOD   2
 UBDSV3 SAVING "       HORT+DUNN" ON UNIT  61 AT TIME STEP  1, STRESS PERIOD   2
 UBDSV3 SAVING "  STORAGE CHANGE" ON UNIT  61 AT TIME STEP  1, STRESS PERIOD   2


UNSATURATED ZONE PACKAGE VOLUMETRIC BUDGET FOR  TIME STEP     1 STRESS PERIOD    2
  ------------------------------------------------------------------------------



     CUMULATIVE VOLUMES      L**3       RATES FOR THIS TIME STEP      L**3/T
     ------------------                 ------------------------

           IN:                                      IN:
           ---                                      ---
        INFILTRATION =      147521.4958          INFILTRATION =           0.8475

          OUT:                                     OUT:
          ----                                     ----
              UZF ET =       65735.6246                UZF ET =           0.7498
        UZF RECHARGE =       73224.0000          UZF RECHARGE =       0.0000E+00

            IN - OUT =        8561.8711              IN - OUT =       9.7664E-02

          STORAGE:                                 STORAGE:
          --------                                 --------
      STORAGE CHANGE =        8561.8722        STORAGE CHANGE =       9.7664E-02

 PERCENT DISCREPANCY IS DIFFERENCE BETWEEN IN-OUT MINUS CHANGE IN STORAGE
 DIVIDED BY THE AVERAGE OF IN AND OUT TIMES 100

 PERCENT DISCREPANCY =           0.00     PERCENT DISCREPANCY =           0.00






 

        AG WELLS          PERIOD    2   STEP   1
 AG WELL      1   LAYER   1   ROW     6   COL     4   RATE     0.00000    
 AG WELL      2   LAYER   1   ROW     6   COL     5   RATE     0.00000    
 AG WELL      3   LAYER   1   ROW     7   COL     4   RATE     0.00000    
 AG WELL      4   LAYER   1   ROW     7   COL     5   RATE     0.00000    
 AG WELL      5   LAYER   1   ROW     8   COL     4   RATE     0.00000    
 AG WELL      6   LAYER   1   ROW     8   COL     5   RATE     0.00000    
 
 

   DIVERSION SEGMENTS     PERIOD    2   STEP   1
 
 

        SW IRRIGATION     PERIOD    2   STEP   1
 
 

        GW IRRIGATION     PERIOD    2   STEP   1
 
1
  VOLUMETRIC BUDGET FOR AGRICULTURAL FIELDS AT  END OF TIME STEP    1, STRESS PERIOD   2
  ------------------------------------------------------------------------------

     CUMULATIVE VOLUMES      L**3       RATES FOR THIS TIME STEP      L**3/T
     ------------------                 ------------------------

           IN:                                      IN:
           ---                                      ---
           AG WELLS      =           0.0000             AG WELLS      =           0.0000
      DIVERSION SEGMENTS =           0.0000        DIVERSION SEGMENTS =           0.0000
           GW IRRIGATION =           0.0000             GW IRRIGATION =           0.0000
           SW IRRIGATION =           0.0000             SW IRRIGATION =           0.0000
        SYSTEM LOSSES GW =           0.0000          SYSTEM LOSSES GW =           0.0000
        SYSTEM LOSSES SW =           0.0000          SYSTEM LOSSES SW =           0.0000

                TOTAL IN =           0.0000                  TOTAL IN =           0.0000

          OUT:                                     OUT:
          ----                                     ----
           AG WELLS      =           0.0000             AG WELLS      =           0.0000
      DIVERSION SEGMENTS =           0.0000        DIVERSION SEGMENTS =           0.0000
           GW IRRIGATION =           0.0000             GW IRRIGATION =           0.0000
           SW IRRIGATION =           0.0000             SW IRRIGATION =           0.0000
        SYSTEM LOSSES GW =           0.0000          SYSTEM LOSSES GW =           0.0000
        SYSTEM LOSSES SW =           0.0000          SYSTEM LOSSES SW =           0.0000

               TOTAL OUT =           0.0000                 TOTAL OUT =           0.0000

                IN - OUT =           0.0000                  IN - OUT =           0.0000

     PERCENT DISCREPANCY =           0.00         PERCENT DISCREPANCY =           0.00



1
              HEAD IN LAYER   1 AT END OF TIME STEP   1 IN STRESS PERIOD    2
  ---------------------------------------------------------------------------

           1       2       3       4       5       6       7       8       9      10
 ...................................................................................
   1  1032.36 1031.32 6999.00 6999.00 6999.00 6999.00 6999.00 6999.00 6999.00 6999.00
   2  1031.40 1030.17 1029.58 6999.00 6999.00 1030.68 1030.83 1030.79 6999.00 6999.00
   3  6999.00 1029.27 1028.96 1028.74 1029.28 1029.91 1030.40 1030.37 6999.00 6999.00
   4  1028.57 1028.53 1028.35 1028.17 1028.24 1028.30 1028.78 1029.83 1029.56 6999.00
   5  1028.13 1027.76 1027.59 1027.51 1027.61 1027.82 1027.99 1028.47 1029.10 1029.63
   6  1027.57 1027.02 1026.83 1026.81 1026.93 1027.26 1027.55 1028.08 1028.52 1029.45
   7  1027.07 1026.08 1025.92 1025.96 1026.14 1026.55 1026.98 1027.45 1027.96 6999.00
   8  6999.00 1024.71 1024.75 1024.91 1025.15 1025.65 1026.08 1026.80 1027.36 6999.00
   9  6999.00 1022.70 1023.03 1023.48 1023.88 1024.53 1025.05 1025.79 1026.91 6999.00
  10  6999.00 1019.87 1020.64 1021.69 1022.47 1023.49 1024.39 1025.46 1027.07 1027.71
  11  6999.00 1015.35 1016.78 1019.32 1020.96 1022.69 1024.22 1026.00 1028.19 6999.00
  12  1001.91 1007.94 1012.08 1016.04 1019.32 1022.30 1024.79 1028.19 1031.18 6999.00
  13   995.56 1000.38 1006.89 1012.87 1018.23 1022.75 1027.05 1031.79 1034.63 6999.00
  14  6999.00 1005.79 1008.88 1013.53 1018.29 1022.70 1027.60 1033.07 1037.48 6999.00
  15  6999.00 6999.00 1012.52 1015.24 1018.71 1021.73 6999.00 6999.00 6999.00 6999.00
1
  VOLUMETRIC BUDGET FOR ENTIRE MODEL AT END OF TIME STEP    1, STRESS PERIOD   2
  ------------------------------------------------------------------------------

     CUMULATIVE VOLUMES      L**3       RATES FOR THIS TIME STEP      L**3/T
     ------------------                 ------------------------

           IN:                                      IN:
           ---                                      ---
             STORAGE     =       66736.4922               STORAGE     =           0.7613
       CONSTANT HEAD     =           0.0000         CONSTANT HEAD     =           0.0000
     HEAD DEP BOUNDS     =       49716.9844       HEAD DEP BOUNDS     =           0.2856
      STREAM LEAKAGE     =     1877049.7500        STREAM LEAKAGE     =          11.2667
        UZF RECHARGE     =       73223.9531          UZF RECHARGE     =           0.0000
               GW ET     =           0.0000                 GW ET     =           0.0000
     SURFACE LEAKAGE     =           0.0000       SURFACE LEAKAGE     =           0.0000
           AG WELLS      =           0.0000             AG WELLS      =           0.0000

                TOTAL IN =     2066727.2500                  TOTAL IN =          12.3136

          OUT:                                     OUT:
          ----                                     ----
             STORAGE     =      159711.2812               STORAGE     =           1.8218
       CONSTANT HEAD     =           0.0000         CONSTANT HEAD     =           0.0000
     HEAD DEP BOUNDS     =       49975.0312       HEAD DEP BOUNDS     =           0.2871
      STREAM LEAKAGE     =     1857066.8750        STREAM LEAKAGE     =          10.2049
        UZF RECHARGE     =           0.0000          UZF RECHARGE     =           0.0000
               GW ET     =           0.0000                 GW ET     =           0.0000
     SURFACE LEAKAGE     =           0.0000       SURFACE LEAKAGE     =           0.0000
           AG WELLS      =           0.0000             AG WELLS      =           0.0000

               TOTAL OUT =     2066753.2500                 TOTAL OUT =          12.3139

                IN - OUT =         -26.0000                  IN - OUT =      -2.9755E-04

     PERCENT DISCREPANCY =          -0.00         PERCENT DISCREPANCY =          -0.00






         TIME SUMMARY AT END OF TIME STEP    1 IN STRESS PERIOD    2
                    SECONDS     MINUTES      HOURS       DAYS        YEARS
                    -----------------------------------------------------------
   TIME STEP LENGTH  87667.      1461.1      24.352      1.0147     2.77799E-03
 STRESS PERIOD TIME  87667.      1461.1      24.352      1.0147     2.77799E-03
         TOTAL TIME 1.74067E+05  2901.1      48.352      2.0147     5.51584E-03
1
 
 SOLVING FOR HEAD 
                                                   Max.-Head-Change                         Max.-Flux-Residual
  Residual-Control   Outer-Iter.   Inner-Iter.     Column Row Layer    Maximum-Head-Change  Column Row Layer    Maximum-Flux-Residual          L2-NORM 
          0                 1           2             2   13     1       0.4141604067E-02       4   13    1         0.2347421644E+00      0.5289478646E+00
          0                 2           2             4   13     1      -0.3943921141E-03       4   13    1        -0.2322508993E-01      0.5195277974E-01
          0                 3           1             4   13     1       0.2644842864E-04       4   13    1         0.1601340582E-02      0.3548358795E-02

    ------------------------------------------------
       NWT REQUIRED            3 OUTER ITERATIONS 
       AND A TOTAL OF          5 INNER ITERATIONS.
    ------------------------------------------------

 NO OUTPUT CONTROL FOR STRESS PERIOD    2   TIME STEP    2
 
 SOLVING FOR HEAD 
                                                   Max.-Head-Change                         Max.-Flux-Residual
  Residual-Control   Outer-Iter.   Inner-Iter.     Column Row Layer    Maximum-Head-Change  Column Row Layer    Maximum-Flux-Residual          L2-NORM 
          0                 1           2             2   13     1       0.3838451722E-02       2   13    1         0.2157898443E+00      0.5018947223E+00
          0                 2           2             4   13     1      -0.3580860464E-03       4   13    1        -0.2107510957E-01      0.4934276730E-01
          0                 3           1             4   13     1       0.2403484716E-04       4   13    1         0.1454379058E-02      0.3375977545E-02

    ------------------------------------------------
       NWT REQUIRED            3 OUTER ITERATIONS 
       AND A TOTAL OF          5 INNER ITERATIONS.
    ------------------------------------------------

 NO OUTPUT CONTROL FOR STRESS PERIOD    2   TIME STEP    3
 
 SOLVING FOR HEAD 
                                                   Max.-Head-Change                         Max.-Flux-Residual
  Residual-Control   Outer-Iter.   Inner-Iter.     Column Row Layer    Maximum-Head-Change  Column Row Layer    Maximum-Flux-Residual          L2-NORM 
          0                 1           2             2   13     1       0.3557559587E-02       2   13    1         0.1999768401E+00      0.4775469808E+00
          0                 2           2             2   13     1      -0.3313317856E-03       2   13    1        -0.1914529669E-01      0.4698879784E-01
          0                 3           1             4   13     1       0.2180721347E-04       4   13    1         0.1318793073E-02      0.3217700760E-02

    ------------------------------------------------
       NWT REQUIRED            3 OUTER ITERATIONS 
       AND A TOTAL OF          5 INNER ITERATIONS.
    ------------------------------------------------

 NO OUTPUT CONTROL FOR STRESS PERIOD    2   TIME STEP    4
 
 SOLVING FOR HEAD 
                                                   Max.-Head-Change                         Max.-Flux-Residual
  Residual-Control   Outer-Iter.   Inner-Iter.     Column Row Layer    Maximum-Head-Change  Column Row Layer    Maximum-Flux-Residual          L2-NORM 
          0                 1           2             2   13     1       0.3297604685E-02       2   13    1         0.1853435845E+00      0.4556415430E+00
          0                 2           2             2    2     1      -0.3075700726E-03       2   13    1        -0.1774964558E-01      0.4487548817E-01
          0                 3           1             2    2     1       0.2094437751E-04       4   13    1         0.1198174047E-02      0.3076929403E-02

    ------------------------------------------------
       NWT REQUIRED            3 OUTER ITERATIONS 
       AND A TOTAL OF          5 INNER ITERATIONS.
    ------------------------------------------------

 NO OUTPUT CONTROL FOR STRESS PERIOD    2   TIME STEP    5
 
 SOLVING FOR HEAD 
                                                   Max.-Head-Change                         Max.-Flux-Residual
  Residual-Control   Outer-Iter.   Inner-Iter.     Column Row Layer    Maximum-Head-Change  Column Row Layer    Maximum-Flux-Residual          L2-NORM 
          0                 1           2             2    2     1       0.3137740412E-02       2   13    1         0.1717992485E+00      0.4359362745E+00
          0                 2           2             2    2     1      -0.3052170142E-03       2   13    1        -0.1645865069E-01      0.4297630026E-01
          0                 3           1             2    2     1       0.2078414308E-04       2    2    1         0.1148336413E-02      0.2950597531E-02

    ------------------------------------------------
       NWT REQUIRED            3 OUTER ITERATIONS 
       AND A TOTAL OF          5 INNER ITERATIONS.
    ------------------------------------------------

 NO OUTPUT CONTROL FOR STRESS PERIOD    2   TIME STEP    6
 
 SOLVING FOR HEAD 
                                                   Max.-Head-Change                         Max.-Flux-Residual
  Residual-Control   Outer-Iter.   Inner-Iter.     Column Row Layer    Maximum-Head-Change  Column Row Layer    Maximum-Flux-Residual          L2-NORM 
          0                 1           2             2    2     1       0.3113901219E-02       2    2    1         0.1627934591E+00      0.4182063023E+00
          0                 2           2             2    2     1      -0.3028981017E-03       2    2    1        -0.1627937418E-01      0.4126813743E-01
          0                 3           1             2    2     1       0.2062623349E-04       2    2    1         0.1139556415E-02      0.2837809020E-02

    ------------------------------------------------
       NWT REQUIRED            3 OUTER ITERATIONS 
       AND A TOTAL OF          5 INNER ITERATIONS.
    ------------------------------------------------

 NO OUTPUT CONTROL FOR STRESS PERIOD    2   TIME STEP    7
 
 SOLVING FOR HEAD 
                                                   Max.-Head-Change                         Max.-Flux-Residual
  Residual-Control   Outer-Iter.   Inner-Iter.     Column Row Layer    Maximum-Head-Change  Column Row Layer    Maximum-Flux-Residual          L2-NORM 
          0                 1           2             2    2     1       0.3090495551E-02       2    2    1         0.1615619536E+00      0.4022459845E+00
          0                 2           2             2    2     1      -0.3006213598E-03       2    2    1        -0.1615622306E-01      0.3973071059E-01
          0                 3           1             2    2     1       0.2047119617E-04       2    2    1         0.1130935852E-02      0.2735708798E-02

    ------------------------------------------------
       NWT REQUIRED            3 OUTER ITERATIONS 
       AND A TOTAL OF          5 INNER ITERATIONS.
    ------------------------------------------------

 NO OUTPUT CONTROL FOR STRESS PERIOD    2   TIME STEP    8
 
 SOLVING FOR HEAD 
                                                   Max.-Head-Change                         Max.-Flux-Residual
  Residual-Control   Outer-Iter.   Inner-Iter.     Column Row Layer    Maximum-Head-Change  Column Row Layer    Maximum-Flux-Residual          L2-NORM 
          0                 1           2             2    2     1       0.3067343233E-02       2    2    1         0.1603438620E+00      0.3878711226E+00
          0                 2           2             2    2     1      -0.2983692623E-03       2    2    1        -0.1603441335E-01      0.3834542087E-01
          0                 3           1             2    2     1       0.2031783686E-04       2    2    1         0.1122409173E-02      0.2642671797E-02

    ------------------------------------------------
       NWT REQUIRED            3 OUTER ITERATIONS 
       AND A TOTAL OF          5 INNER ITERATIONS.
    ------------------------------------------------

 NO OUTPUT CONTROL FOR STRESS PERIOD    2   TIME STEP    9
 
 SOLVING FOR HEAD 
                                                   Max.-Head-Change                         Max.-Flux-Residual
  Residual-Control   Outer-Iter.   Inner-Iter.     Column Row Layer    Maximum-Head-Change  Column Row Layer    Maximum-Flux-Residual          L2-NORM 
          0                 1           2             2    2     1       0.3044526459E-02       2    2    1         0.1591434383E+00      0.3749194505E+00
          0                 2           2             2    2     1      -0.2961498038E-03       2    2    1        -0.1591437041E-01      0.3709815521E-01
          0                 3           1             2    2     1       0.2016669991E-04       2    2    1         0.1114006163E-02      0.2560264876E-02

    ------------------------------------------------
       NWT REQUIRED            3 OUTER ITERATIONS 
       AND A TOTAL OF          5 INNER ITERATIONS.
    ------------------------------------------------

 NO OUTPUT CONTROL FOR STRESS PERIOD    2   TIME STEP   10
 
 SOLVING FOR HEAD 
                                                   Max.-Head-Change                         Max.-Flux-Residual
  Residual-Control   Outer-Iter.   Inner-Iter.     Column Row Layer    Maximum-Head-Change  Column Row Layer    Maximum-Flux-Residual          L2-NORM 
          0                 1           2             2    2     1       0.3021953028E-02       2    2    1         0.1579558800E+00      0.3632348403E+00
          0                 2           2             2    2     1      -0.2939540159E-03       2    2    1        -0.1579561404E-01      0.3597264143E-01
          0                 3           1             2    2     1       0.2001717447E-04       2    2    1         0.1105693200E-02      0.2485321935E-02

    ------------------------------------------------
       NWT REQUIRED            3 OUTER ITERATIONS 
       AND A TOTAL OF          5 INNER ITERATIONS.
    ------------------------------------------------

 NO OUTPUT CONTROL FOR STRESS PERIOD    2   TIME STEP   11
 
 SOLVING FOR HEAD 
                                                   Max.-Head-Change                         Max.-Flux-Residual
  Residual-Control   Outer-Iter.   Inner-Iter.     Column Row Layer    Maximum-Head-Change  Column Row Layer    Maximum-Flux-Residual          L2-NORM 
          0                 1           2             2    2     1       0.2999790039E-02       2    2    1         0.1567898805E+00      0.3526755102E+00
          0                 2           2             2    2     1      -0.2917981541E-03       2    2    1        -0.1567901358E-01      0.3495648231E-01
          0                 3           1             2    2     1       0.1987036864E-04       2    2    1         0.1097531184E-02      0.2417810200E-02

    ------------------------------------------------
       NWT REQUIRED            3 OUTER ITERATIONS 
       AND A TOTAL OF          5 INNER ITERATIONS.
    ------------------------------------------------

 NO OUTPUT CONTROL FOR STRESS PERIOD    2   TIME STEP   12
 
 SOLVING FOR HEAD 
                                                   Max.-Head-Change                         Max.-Flux-Residual
  Residual-Control   Outer-Iter.   Inner-Iter.     Column Row Layer    Maximum-Head-Change  Column Row Layer    Maximum-Flux-Residual          L2-NORM 
          0                 1           2             2    2     1       0.2977861985E-02       2    2    1         0.1556363428E+00      0.3431290732E+00
          0                 2           2             2    2     1      -0.2896651447E-03       2    2    1        -0.1556365931E-01      0.3403420194E-01
          0                 3           1             2    2     1       0.1972511894E-04       2    2    1         0.1089456382E-02      0.2356634596E-02

    ------------------------------------------------
       NWT REQUIRED            3 OUTER ITERATIONS 
       AND A TOTAL OF          5 INNER ITERATIONS.
    ------------------------------------------------

 NO OUTPUT CONTROL FOR STRESS PERIOD    2   TIME STEP   13
 
 SOLVING FOR HEAD 
                                                   Max.-Head-Change                         Max.-Flux-Residual
  Residual-Control   Outer-Iter.   Inner-Iter.     Column Row Layer    Maximum-Head-Change  Column Row Layer    Maximum-Flux-Residual          L2-NORM 
          0                 1           2             2    2     1       0.2956249451E-02       2    2    1         0.1544993958E+00      0.3344812589E+00
          0                 2           2             2    2     1      -0.2875628271E-03       2    2    1        -0.1544996412E-01      0.3320172279E-01
          0                 3           1             2    2     1       0.1958195883E-04       2    2    1         0.1081497722E-02      0.2301493628E-02

    ------------------------------------------------
       NWT REQUIRED            3 OUTER ITERATIONS 
       AND A TOTAL OF          5 INNER ITERATIONS.
    ------------------------------------------------

 NO OUTPUT CONTROL FOR STRESS PERIOD    2   TIME STEP   14
 
 SOLVING FOR HEAD 
                                                   Max.-Head-Change                         Max.-Flux-Residual
  Residual-Control   Outer-Iter.   Inner-Iter.     Column Row Layer    Maximum-Head-Change  Column Row Layer    Maximum-Flux-Residual          L2-NORM 
          0                 1           2             2    2     1       0.2934946924E-02       2    2    1         0.1533788083E+00      0.3266290391E+00
          0                 2           2             2    2     1      -0.2854906645E-03       2    2    1        -0.1533790486E-01      0.3244578659E-01
          0                 3           1             2    2     1       0.1944085210E-04       2    2    1         0.1073653580E-02      0.2253271663E-02

    ------------------------------------------------
       NWT REQUIRED            3 OUTER ITERATIONS 
       AND A TOTAL OF          5 INNER ITERATIONS.
    ------------------------------------------------

 NO OUTPUT CONTROL FOR STRESS PERIOD    2   TIME STEP   15
 
 SOLVING FOR HEAD 
                                                   Max.-Head-Change                         Max.-Flux-Residual
  Residual-Control   Outer-Iter.   Inner-Iter.     Column Row Layer    Maximum-Head-Change  Column Row Layer    Maximum-Flux-Residual          L2-NORM 
          0                 1           2             2    2     1       0.2913949701E-02       2    2    1         0.1522742942E+00      0.3194883970E+00
          0                 2           2             2    2     1      -0.2834482001E-03       2    2    1        -0.1522745299E-01      0.3175458754E-01
          0                 3           1             2    2     1       0.1930176821E-04       2    2    1         0.1065921939E-02      0.2202108134E-02

    ------------------------------------------------
       NWT REQUIRED            3 OUTER ITERATIONS 
       AND A TOTAL OF          5 INNER ITERATIONS.
    ------------------------------------------------

 NO OUTPUT CONTROL FOR STRESS PERIOD    2   TIME STEP   16
 
 SOLVING FOR HEAD 
                                                   Max.-Head-Change                         Max.-Flux-Residual
  Residual-Control   Outer-Iter.   Inner-Iter.     Column Row Layer    Maximum-Head-Change  Column Row Layer    Maximum-Flux-Residual          L2-NORM 
          0                 1           2             2    2     1       0.2893252802E-02       2    2    1         0.1511856099E+00      0.3129773638E+00
          0                 2           2             2    2     1      -0.2814349494E-03       2    2    1        -0.1511858410E-01      0.3112425761E-01
          0                 3           1             2    2     1       0.1916467332E-04       2    2    1         0.1058301126E-02      0.2162372807E-02

    ------------------------------------------------
       NWT REQUIRED            3 OUTER ITERATIONS 
       AND A TOTAL OF          5 INNER ITERATIONS.
    ------------------------------------------------

 NO OUTPUT CONTROL FOR STRESS PERIOD    2   TIME STEP   17
 
 SOLVING FOR HEAD 
                                                   Max.-Head-Change                         Max.-Flux-Residual
  Residual-Control   Outer-Iter.   Inner-Iter.     Column Row Layer    Maximum-Head-Change  Column Row Layer    Maximum-Flux-Residual          L2-NORM 
          0                 1           2             2    2     1       0.2872764618E-02       2    2    1         0.1501079641E+00      0.3070291294E+00
          0                 2           2             2    2     1      -0.2794420010E-03       2    2    1        -0.1501081909E-01      0.3054880097E-01
          0                 3           1             2    2     1       0.1902896085E-04       2    2    1         0.1050757575E-02      0.2123802106E-02

    ------------------------------------------------
       NWT REQUIRED            3 OUTER ITERATIONS 
       AND A TOTAL OF          5 INNER ITERATIONS.
    ------------------------------------------------

 NO OUTPUT CONTROL FOR STRESS PERIOD    2   TIME STEP   18
 
 SOLVING FOR HEAD 
                                                   Max.-Head-Change                         Max.-Flux-Residual
  Residual-Control   Outer-Iter.   Inner-Iter.     Column Row Layer    Maximum-Head-Change  Column Row Layer    Maximum-Flux-Residual          L2-NORM 
          0                 1           2             2    2     1       0.2852655220E-02       2    2    1         0.1490502058E+00      0.3015797110E+00
          0                 2           2             2    2     1      -0.2774858982E-03       2    2    1        -0.1490504280E-01      0.3002118470E-01
          0                 3           1             2    2     1       0.1889575781E-04       2    2    1         0.1043353232E-02      0.2088771625E-02

    ------------------------------------------------
       NWT REQUIRED            3 OUTER ITERATIONS 
       AND A TOTAL OF          5 INNER ITERATIONS.
    ------------------------------------------------

 NO OUTPUT CONTROL FOR STRESS PERIOD    2   TIME STEP   19
 
 SOLVING FOR HEAD 
                                                   Max.-Head-Change                         Max.-Flux-Residual
  Residual-Control   Outer-Iter.   Inner-Iter.     Column Row Layer    Maximum-Head-Change  Column Row Layer    Maximum-Flux-Residual          L2-NORM 
          0                 1           2             2    2     1       0.2832744979E-02       2    2    1         0.1480030213E+00      0.2965743403E+00
          0                 2           2             2    2     1      -0.2755491682E-03       2    2    1        -0.1480032393E-01      0.2953617810E-01
          0                 3           1             2    2     1       0.1876387376E-04       2    2    1         0.1036022913E-02      0.2056254546E-02

    ------------------------------------------------
       NWT REQUIRED            3 OUTER ITERATIONS 
       AND A TOTAL OF          5 INNER ITERATIONS.
    ------------------------------------------------

 NO OUTPUT CONTROL FOR STRESS PERIOD    2   TIME STEP   20
 
 SOLVING FOR HEAD 
                                                   Max.-Head-Change                         Max.-Flux-Residual
  Residual-Control   Outer-Iter.   Inner-Iter.     Column Row Layer    Maximum-Head-Change  Column Row Layer    Maximum-Flux-Residual          L2-NORM 
          0                 1           2             2    2     1       0.2813117412E-02       2    2    1         0.1469706957E+00      0.2919606691E+00
          0                 2           2             2    2     1      -0.2736399349E-03       2    2    1        -0.1469709095E-01      0.2908721195E-01
          0                 3           1             2    2     1       0.1863386204E-04       2    2    1         0.1028796608E-02      0.2025392134E-02

    ------------------------------------------------
       NWT REQUIRED            3 OUTER ITERATIONS 
       AND A TOTAL OF          5 INNER ITERATIONS.
    ------------------------------------------------

 NO OUTPUT CONTROL FOR STRESS PERIOD    2   TIME STEP   21
 
 SOLVING FOR HEAD 
                                                   Max.-Head-Change                         Max.-Flux-Residual
  Residual-Control   Outer-Iter.   Inner-Iter.     Column Row Layer    Maximum-Head-Change  Column Row Layer    Maximum-Flux-Residual          L2-NORM 
          0                 1           2             2    2     1       0.2793767597E-02       2    2    1         0.1459530265E+00      0.2876717450E+00
          0                 2           2             2    2     1      -0.2717577197E-03       2    2    1        -0.1459532363E-01      0.2864800425E-01
          0                 3           1             2    2     1       0.1850569044E-04       2    2    1         0.1021672912E-02      0.1996967620E-02

    ------------------------------------------------
       NWT REQUIRED            3 OUTER ITERATIONS 
       AND A TOTAL OF          5 INNER ITERATIONS.
    ------------------------------------------------

 NO OUTPUT CONTROL FOR STRESS PERIOD    2   TIME STEP   22
 
 SOLVING FOR HEAD 
                                                   Max.-Head-Change                         Max.-Flux-Residual
  Residual-Control   Outer-Iter.   Inner-Iter.     Column Row Layer    Maximum-Head-Change  Column Row Layer    Maximum-Flux-Residual          L2-NORM 
          0                 1           2             2    2     1       0.2774691381E-02       2    2    1         0.1449497585E+00      0.2837507840E+00
          0                 2           2             2    2     1      -0.2699021179E-03       2    2    1        -0.1449499642E-01      0.2829013869E-01
          0                 3           1             2    2     1       0.1837933082E-04       2    2    1         0.1014650006E-02      0.1972719293E-02

    ------------------------------------------------
       NWT REQUIRED            3 OUTER ITERATIONS 
       AND A TOTAL OF          5 INNER ITERATIONS.
    ------------------------------------------------

 NO OUTPUT CONTROL FOR STRESS PERIOD    2   TIME STEP   23
 
 SOLVING FOR HEAD 
                                                   Max.-Head-Change                         Max.-Flux-Residual
  Residual-Control   Outer-Iter.   Inner-Iter.     Column Row Layer    Maximum-Head-Change  Column Row Layer    Maximum-Flux-Residual          L2-NORM 
          0                 1           2             2    2     1       0.2755889406E-02       2    2    1         0.1439609219E+00      0.2800863817E+00
          0                 2           2             2    2     1      -0.2680731924E-03       2    2    1        -0.1439611239E-01      0.2793275682E-01
          0                 3           1             2    2     1       0.1825478743E-04       2    2    1         0.1007728093E-02      0.1948629738E-02

    ------------------------------------------------
       NWT REQUIRED            3 OUTER ITERATIONS 
       AND A TOTAL OF          5 INNER ITERATIONS.
    ------------------------------------------------

 NO OUTPUT CONTROL FOR STRESS PERIOD    2   TIME STEP   24
 
 SOLVING FOR HEAD 
                                                   Max.-Head-Change                         Max.-Flux-Residual
  Residual-Control   Outer-Iter.   Inner-Iter.     Column Row Layer    Maximum-Head-Change  Column Row Layer    Maximum-Flux-Residual          L2-NORM 
          0                 1           2             2    2     1       0.2737260761E-02       2    2    1         0.1429812797E+00      0.2766706518E+00
          0                 2           2             2    2     1      -0.2662611273E-03       2    2    1        -0.1429814778E-01      0.2759995882E-01
          0                 3           1             2    2     1       0.1813139261E-04       2    2    1         0.1000870577E-02      0.1925853957E-02

    ------------------------------------------------
       NWT REQUIRED            3 OUTER ITERATIONS 
       AND A TOTAL OF          5 INNER ITERATIONS.
    ------------------------------------------------

 NO OUTPUT CONTROL FOR STRESS PERIOD    2   TIME STEP   25
 
 SOLVING FOR HEAD 
                                                   Max.-Head-Change                         Max.-Flux-Residual
  Residual-Control   Outer-Iter.   Inner-Iter.     Column Row Layer    Maximum-Head-Change  Column Row Layer    Maximum-Flux-Residual          L2-NORM 
          0                 1           2             2    2     1       0.2718980085E-02       2    2    1         0.1420199372E+00      0.2734814448E+00
          0                 2           2             2    2     1      -0.2644829109E-03       2    2    1        -0.1420201317E-01      0.2728806241E-01
          0                 3           1             2    2     1       0.1801030323E-04       2    2    1         0.9941411768E-03      0.1904250751E-02

    ------------------------------------------------
       NWT REQUIRED            3 OUTER ITERATIONS 
       AND A TOTAL OF          5 INNER ITERATIONS.
    ------------------------------------------------

 NO OUTPUT CONTROL FOR STRESS PERIOD    2   TIME STEP   26
 
 SOLVING FOR HEAD 
                                                   Max.-Head-Change                         Max.-Flux-Residual
  Residual-Control   Outer-Iter.   Inner-Iter.     Column Row Layer    Maximum-Head-Change  Column Row Layer    Maximum-Flux-Residual          L2-NORM 
          0                 1           2             2    2     1       0.2700869381E-02       2    2    1         0.1410675692E+00      0.2704895739E+00
          0                 2           2             2    2     1      -0.2627212273E-03       2    2    1        -0.1410677599E-01      0.2699573848E-01
          0                 3           1             2    2     1       0.1789033852E-04       2    2    1         0.9874745567E-03      0.1885295107E-02

    ------------------------------------------------
       NWT REQUIRED            3 OUTER ITERATIONS 
       AND A TOTAL OF          5 INNER ITERATIONS.
    ------------------------------------------------

 NO OUTPUT CONTROL FOR STRESS PERIOD    2   TIME STEP   27
 
 SOLVING FOR HEAD 
                                                   Max.-Head-Change                         Max.-Flux-Residual
  Residual-Control   Outer-Iter.   Inner-Iter.     Column Row Layer    Maximum-Head-Change  Column Row Layer    Maximum-Flux-Residual          L2-NORM 
          0                 1           2             2    2     1       0.2683012307E-02       2    2    1         0.1401285478E+00      0.2676806483E+00
          0                 2           2             2    2     1      -0.2609842159E-03       2    2    1        -0.1401287351E-01      0.2672002674E-01
          0                 3           1             2    2     1       0.1777205489E-04       2    2    1         0.9809013885E-03      0.1865495041E-02

    ------------------------------------------------
       NWT REQUIRED            3 OUTER ITERATIONS 
       AND A TOTAL OF          5 INNER ITERATIONS.
    ------------------------------------------------

 NO OUTPUT CONTROL FOR STRESS PERIOD    2   TIME STEP   28
 
 SOLVING FOR HEAD 
                                                   Max.-Head-Change                         Max.-Flux-Residual
  Residual-Control   Outer-Iter.   Inner-Iter.     Column Row Layer    Maximum-Head-Change  Column Row Layer    Maximum-Flux-Residual          L2-NORM 
          0                 1           2             2    2     1       0.2665404407E-02       2    2    1         0.1392026767E+00      0.2650364101E+00
          0                 2           2             2    2     1      -0.2592714421E-03       2    2    1        -0.1392028606E-01      0.2646096208E-01
          0                 3           1             2    2     1       0.1765542112E-04       2    2    1         0.9744202535E-03      0.1848266191E-02

    ------------------------------------------------
       NWT REQUIRED            3 OUTER ITERATIONS 
       AND A TOTAL OF          5 INNER ITERATIONS.
    ------------------------------------------------

 NO OUTPUT CONTROL FOR STRESS PERIOD    2   TIME STEP   29
 
 SOLVING FOR HEAD 
                                                   Max.-Head-Change                         Max.-Flux-Residual
  Residual-Control   Outer-Iter.   Inner-Iter.     Column Row Layer    Maximum-Head-Change  Column Row Layer    Maximum-Flux-Residual          L2-NORM 
          0                 1           2             2    2     1       0.2648042040E-02       2    2    1         0.1382897251E+00      0.2625375411E+00
          0                 2           2             2    2     1      -0.2575825525E-03       2    2    1        -0.1382899057E-01      0.2621546360E-01
          0                 3           1             2    2     1       0.1754041401E-04       2    2    1         0.9680295867E-03      0.1831743696E-02

    ------------------------------------------------
       NWT REQUIRED            3 OUTER ITERATIONS 
       AND A TOTAL OF          5 INNER ITERATIONS.
    ------------------------------------------------

 NO OUTPUT CONTROL FOR STRESS PERIOD    2   TIME STEP   30



 STREAM LISTING     PERIOD      2   STEP       30

 LAYER ROW COL. STREAM  RCH.  FLOW INTO     FLOW TO   FLOW OUT OF   OVRLND.     DIRECT     STREAM       STREAM     STREAM     STREAM   STREAMBED  STREAMBED
                SEG.NO.  NO.  STRM. RCH.    AQUIFER    STRM. RCH.    RUNOFF     PRECIP       ET          HEAD       DEPTH      WIDTH   CONDCTNC.   GRADIENT

   1    1    1     1     1    1.6500E+01  1.9759E-01   1.6302E+01  0.000E+00  0.000E+00  0.000E+00  1.09409E+03  1.039E+00  1.087E+01  4.893E-02  1.346E+00
   1    2    2     1     2    1.6302E+01  3.0466E-01   1.5998E+01  0.000E+00  0.000E+00  0.000E+00  1.08909E+03  1.034E+00  1.079E+01  7.552E-02  1.345E+00
   1    3    3     1     3    1.5998E+01  2.5853E-01   1.5739E+01  0.000E+00  0.000E+00  0.000E+00  1.08345E+03  1.029E+00  1.070E+01  6.417E-02  1.343E+00
   1    3    4     1     4    1.5739E+01  2.3700E-01   1.5502E+01  0.000E+00  0.000E+00  0.000E+00  1.07843E+03  1.024E+00  1.061E+01  5.889E-02  1.341E+00
   1    4    5     2     1    1.3502E+01  2.9865E-01   1.3204E+01  0.000E+00  0.000E+00  0.000E+00  1.07276E+03  8.289E-01  1.200E+01  7.800E-02  1.276E+00
   1    5    6     2     2    1.3204E+01  2.2914E-01   1.2974E+01  0.000E+00  0.000E+00  0.000E+00  1.06733E+03  8.190E-01  1.200E+01  6.000E-02  1.273E+00
   1    6    6     2     3    1.2974E+01  2.2862E-01   1.2746E+01  0.000E+00  0.000E+00  0.000E+00  1.06260E+03  8.104E-01  1.200E+01  6.000E-02  1.270E+00
   1    7    6     2     4    1.2746E+01  2.2810E-01   1.2518E+01  0.000E+00  0.000E+00  0.000E+00  1.05788E+03  8.017E-01  1.200E+01  6.000E-02  1.267E+00
   1    8    6     2     5    1.2518E+01  2.2758E-01   1.2290E+01  0.000E+00  0.000E+00  0.000E+00  1.05315E+03  7.930E-01  1.200E+01  6.000E-02  1.264E+00
   1    3    5     3     1    2.0000E+00  2.8252E-01   1.7175E+00  0.000E+00  0.000E+00  0.000E+00  1.07555E+03  1.909E+00  9.636E+00  7.227E-02  1.955E+00
   1    3    6     3     2    1.7175E+00  2.4905E-01   1.4684E+00  0.000E+00  0.000E+00  0.000E+00  1.07264E+03  1.727E+00  8.909E+00  6.682E-02  1.864E+00
   1    3    7     3     3    1.4684E+00  1.9718E-01   1.2712E+00  0.000E+00  0.000E+00  0.000E+00  1.06987E+03  1.555E+00  8.218E+00  5.547E-02  1.777E+00
   1    4    8     3     4    1.2712E+00  2.2567E-01   1.0456E+00  0.000E+00  0.000E+00  0.000E+00  1.06682E+03  1.364E+00  7.455E+00  6.709E-02  1.682E+00
   1    5    8     3     5    1.0456E+00  1.5790E-01   8.8768E-01  0.000E+00  0.000E+00  0.000E+00  1.06362E+03  1.164E+00  6.655E+00  4.991E-02  1.582E+00
   1    6    8     3     6    8.8768E-01  5.5980E-02   8.3170E-01  0.000E+00  0.000E+00  0.000E+00  1.06158E+03  1.036E+00  6.145E+00  1.844E-02  1.518E+00
   1    5   10     4     1    1.0000E+01  9.0919E-02   9.9091E+00  0.000E+00  0.000E+00  0.000E+00  1.07836E+03  6.368E-01  1.000E+01  2.500E-02  1.212E+00
   1    5    9     4     2    9.9091E+00  1.8158E-01   9.7275E+00  0.000E+00  0.000E+00  0.000E+00  1.07154E+03  6.315E-01  1.000E+01  5.000E-02  1.211E+00
   1    6    8     4     3    9.7275E+00  1.2689E-01   9.6006E+00  0.000E+00  0.000E+00  0.000E+00  1.06381E+03  6.256E-01  1.000E+01  3.500E-02  1.209E+00
   1    6    8     5     1    1.0432E+01  2.2686E-01   1.0205E+01  0.000E+00  0.000E+00  0.000E+00  1.05868E+03  6.790E-01  1.542E+01  6.166E-02  1.226E+00
   1    7    7     5     2    1.0205E+01  2.7894E-01   9.9265E+00  0.000E+00  0.000E+00  0.000E+00  1.05417E+03  6.732E-01  1.519E+01  7.594E-02  1.224E+00
   1    8    7     5     3    9.9265E+00  1.9221E-01   9.7343E+00  0.000E+00  0.000E+00  0.000E+00  1.04992E+03  6.676E-01  1.497E+01  5.241E-02  1.223E+00
   1    8    6     5     4    9.7343E+00  1.3577E-01   9.5985E+00  0.000E+00  0.000E+00  0.000E+00  1.04691E+03  6.637E-01  1.482E+01  3.706E-02  1.221E+00
   1    9    6     6     1    2.1889E+01  2.4742E-01   2.1641E+01  0.000E+00  0.000E+00  0.000E+00  1.04385E+03  1.124E+00  1.200E+01  6.000E-02  1.375E+00
   1   10    7     6     2    2.1641E+01  2.4696E-01   2.1394E+01  0.000E+00  0.000E+00  0.000E+00  1.03930E+03  1.116E+00  1.200E+01  6.000E-02  1.372E+00
   1   11    7     6     3    2.1394E+01  2.4650E-01   2.1148E+01  0.000E+00  0.000E+00  0.000E+00  1.03474E+03  1.108E+00  1.200E+01  6.000E-02  1.369E+00
   1   12    7     6     4    2.1148E+01  2.4603E-01   2.0902E+01  0.000E+00  0.000E+00  0.000E+00  1.03019E+03  1.101E+00  1.200E+01  6.000E-02  1.367E+00
   1   13    7     6     5    2.0902E+01 -1.7643E-02   2.0919E+01  0.000E+00  0.000E+00  0.000E+00  1.02701E+03  1.097E+00  1.200E+01  2.400E-01 -2.450E-02
   1   14    9     7     1    1.5000E+02  1.3345E+00   1.4867E+02  0.000E+00  0.000E+00  0.000E+00  1.03987E+03  2.288E+00  5.529E+01  5.593E-01  7.953E-01
   1   13    8     7     2    1.4867E+02  1.8340E+00   1.4683E+02  0.000E+00  0.000E+00  0.000E+00  1.03478E+03  2.279E+00  5.526E+01  6.148E-01  9.944E-01
   1   13    7     7     3    1.4683E+02  1.4577E+00   1.4537E+02  0.000E+00  0.000E+00  0.000E+00  1.02969E+03  2.271E+00  5.522E+01  5.585E-01  8.701E-01
   1   13    6     8     1    1.6629E+02  8.7801E-01   1.6542E+02  0.000E+00  0.000E+00  0.000E+00  1.02480E+03  2.925E+00  4.241E+01  4.322E-01  6.772E-01
   1   13    5     8     2    1.6542E+02  1.3043E-01   1.6528E+02  0.000E+00  0.000E+00  0.000E+00  1.01855E+03  2.922E+00  4.236E+01  4.317E-01  1.007E-01
   1   13    4     8     3    1.6528E+02 -2.6018E+00   1.6789E+02  0.000E+00  0.000E+00  0.000E+00  1.01230E+03  2.930E+00  4.248E+01  4.329E+00 -2.003E-01
   1   13    3     8     4    1.6789E+02 -3.7076E+00   1.7159E+02  0.000E+00  0.000E+00  0.000E+00  1.00608E+03  2.951E+00  4.278E+01  4.360E+00 -2.835E-01
   1   13    2     8     5    1.7159E+02 -2.5608E+00   1.7416E+02  0.000E+00  0.000E+00  0.000E+00  9.99846E+02  2.971E+00  4.308E+01  4.390E+00 -1.945E-01
   1   13    1     8     6    1.7416E+02 -1.9439E+00   1.7610E+02  0.000E+00  0.000E+00  0.000E+00  9.94860E+02  2.985E+00  4.329E+01  2.647E+00 -2.448E-01
   1    8    6     9     1    0.0000E+00  0.0000E+00   0.0000E+00  0.000E+00  0.000E+00  0.000E+00  1.07875E+03  0.000E+00  4.000E+00  0.000E+00  1.000E+00
   1    8    5     9     2    0.0000E+00  0.0000E+00   0.0000E+00  0.000E+00  0.000E+00  0.000E+00  1.07825E+03  0.000E+00  4.000E+00  0.000E+00  1.000E+00





UNSATURATED ZONE PACKAGE VOLUMETRIC BUDGET FOR  TIME STEP    30 STRESS PERIOD    2
  ------------------------------------------------------------------------------



     CUMULATIVE VOLUMES      L**3       RATES FOR THIS TIME STEP      L**3/T
     ------------------                 ------------------------

           IN:                                      IN:
           ---                                      ---
        INFILTRATION =     2302148.8727          INFILTRATION =           0.8475

          OUT:                                     OUT:
          ----                                     ----
              UZF ET =     1972485.7128                UZF ET =           0.7500
        UZF RECHARGE =       73224.0000          UZF RECHARGE =       0.0000E+00

            IN - OUT =      256439.1600              IN - OUT =       9.7500E-02

          STORAGE:                                 STORAGE:
          --------                                 --------
      STORAGE CHANGE =      256439.1819        STORAGE CHANGE =       9.7500E-02

 PERCENT DISCREPANCY IS DIFFERENCE BETWEEN IN-OUT MINUS CHANGE IN STORAGE
 DIVIDED BY THE AVERAGE OF IN AND OUT TIMES 100

 PERCENT DISCREPANCY =          -0.00     PERCENT DISCREPANCY =           0.00






1
  VOLUMETRIC BUDGET FOR AGRICULTURAL FIELDS AT  END OF TIME STEP   30, STRESS PERIOD   2
  ------------------------------------------------------------------------------

     CUMULATIVE VOLUMES      L**3       RATES FOR THIS TIME STEP      L**3/T
     ------------------                 ------------------------

           IN:                                      IN:
           ---                                      ---
           AG WELLS      =           0.0000             AG WELLS      =           0.0000
      DIVERSION SEGMENTS =           0.0000        DIVERSION SEGMENTS =           0.0000
           GW IRRIGATION =           0.0000             GW IRRIGATION =           0.0000
           SW IRRIGATION =           0.0000             SW IRRIGATION =           0.0000
        SYSTEM LOSSES GW =           0.0000          SYSTEM LOSSES GW =           0.0000
        SYSTEM LOSSES SW =           0.0000          SYSTEM LOSSES SW =           0.0000

                TOTAL IN =           0.0000                  TOTAL IN =           0.0000

          OUT:                                     OUT:
          ----                                     ----
           AG WELLS      =           0.0000             AG WELLS      =           0.0000
      DIVERSION SEGMENTS =           0.0000        DIVERSION SEGMENTS =           0.0000
           GW IRRIGATION =           0.0000             GW IRRIGATION =           0.0000
           SW IRRIGATION =           0.0000             SW IRRIGATION =           0.0000
        SYSTEM LOSSES GW =           0.0000          SYSTEM LOSSES GW =           0.0000
        SYSTEM LOSSES SW =           0.0000          SYSTEM LOSSES SW =           0.0000

               TOTAL OUT =           0.0000                 TOTAL OUT =           0.0000

                IN - OUT =           0.0000                  IN - OUT =           0.0000

     PERCENT DISCREPANCY =           0.00         PERCENT DISCREPANCY =           0.00



1
  VOLUMETRIC BUDGET FOR ENTIRE MODEL AT END OF TIME STEP   30, STRESS PERIOD   2
  ------------------------------------------------------------------------------

     CUMULATIVE VOLUMES      L**3       RATES FOR THIS TIME STEP      L**3/T
     ------------------                 ------------------------

           IN:                                      IN:
           ---                                      ---
             STORAGE     =     1717157.7500               STORAGE     =           0.5919
       CONSTANT HEAD     =           0.0000         CONSTANT HEAD     =           0.0000
     HEAD DEP BOUNDS     =      775921.8750       HEAD DEP BOUNDS     =           0.2857
      STREAM LEAKAGE     =    30472192.0000        STREAM LEAKAGE     =          11.2329
        UZF RECHARGE     =       73223.9531          UZF RECHARGE     =           0.0000
               GW ET     =           0.0000                 GW ET     =           0.0000
     SURFACE LEAKAGE     =           0.0000       SURFACE LEAKAGE     =           0.0000
           AG WELLS      =           0.0000             AG WELLS      =           0.0000

                TOTAL IN =    33038496.0000                  TOTAL IN =          12.1105

          OUT:                                     OUT:
          ----                                     ----
             STORAGE     =     3367968.7500               STORAGE     =           0.9902
       CONSTANT HEAD     =           0.0000         CONSTANT HEAD     =           0.0000
     HEAD DEP BOUNDS     =      782284.1250       HEAD DEP BOUNDS     =           0.2886
      STREAM LEAKAGE     =    28888704.0000        STREAM LEAKAGE     =          10.8318
        UZF RECHARGE     =           0.0000          UZF RECHARGE     =           0.0000
               GW ET     =           0.0000                 GW ET     =           0.0000
     SURFACE LEAKAGE     =           0.0000       SURFACE LEAKAGE     =           0.0000
           AG WELLS      =           0.0000             AG WELLS      =           0.0000

               TOTAL OUT =    33038956.0000                 TOTAL OUT =          12.1106

                IN - OUT =        -460.0000                  IN - OUT =      -1.1063E-04

     PERCENT DISCREPANCY =          -0.00         PERCENT DISCREPANCY =          -0.00






         TIME SUMMARY AT END OF TIME STEP   30 IN STRESS PERIOD    2
                    SECONDS     MINUTES      HOURS       DAYS        YEARS
                    -----------------------------------------------------------
   TIME STEP LENGTH  87667.      1461.1      24.352      1.0147     2.77799E-03
 STRESS PERIOD TIME 2.63000E+06  43833.      730.56      30.440     8.33397E-02
         TOTAL TIME 2.71640E+06  45273.      754.56      31.440     8.60775E-02
1
1
                            STRESS PERIOD NO.    3, LENGTH =   2630000.    
                            -----------------------------------------------

                              NUMBER OF TIME STEPS =    30

                               MULTIPLIER FOR DELT =     1.000

                            INITIAL TIME STEP SIZE =   87666.66    

 REUSING NON-PARAMETER GHB CELLS FROM LAST STRESS PERIOD

      2 GHB CELLS

 REUSING STREAM SEGMENT DATA FROM LAST STRESS PERIOD



            AREAL INFILTRATION RATE
 READING ON UNIT   19 WITH FORMAT: (FREE)              

            1           2           3           4           5           6           7           8           9          10
 ........................................................................................................................
   1   1.0000E-10  2.0000E-10   0.000       0.000       0.000       0.000       0.000       0.000       0.000       0.000    
   2   2.0000E-10  1.0000E-10  2.0000E-10   0.000       0.000      8.0000E-10  8.0000E-10  5.0000E-10   0.000       0.000    
   3    0.000      5.0000E-10  1.0000E-10  1.0000E-10  8.0000E-10  8.0000E-10  5.0000E-10  5.0000E-10   0.000       0.000    
   4   8.0000E-10  5.0000E-10  1.0000E-10  1.0000E-10  1.0000E-10  1.0000E-10  1.0000E-10  1.0000E-10  2.0000E-10   0.000    
   5   8.0000E-10  5.0000E-10  1.0000E-10  1.0000E-10  1.0000E-10  1.0000E-10  1.0000E-10  1.0000E-10  1.0000E-10  1.0000E-10
   6   8.0000E-10  5.0000E-10  5.0000E-10  2.0000E-10  2.0000E-10  1.0000E-10  1.0000E-10  1.0000E-10  1.0000E-10  5.0000E-10
   7   8.0000E-10  5.0000E-10  5.0000E-10  2.0000E-10  2.0000E-10  1.0000E-10  1.0000E-10  2.0000E-10  2.0000E-10   0.000    
   8    0.000      5.0000E-10  5.0000E-10  2.0000E-10  2.0000E-10  1.0000E-10  1.0000E-10  2.0000E-10  5.0000E-10   0.000    
   9    0.000      5.0000E-10  5.0000E-10  2.0000E-10  2.0000E-10  1.0000E-10  1.0000E-10  2.0000E-10  5.0000E-10   0.000    
  10    0.000      5.0000E-10  5.0000E-10  2.0000E-10  2.0000E-10  1.0000E-10  1.0000E-10  2.0000E-10  5.0000E-10  8.0000E-10
  11    0.000      1.0000E-10  1.0000E-10  1.0000E-10  1.0000E-10  1.0000E-10  1.0000E-10  2.0000E-10  5.0000E-10   0.000    
  12   1.0000E-10  1.0000E-10  1.0000E-10  1.0000E-10  1.0000E-10  1.0000E-10  1.0000E-10  1.0000E-10  2.0000E-10   0.000    
  13   1.0000E-10  1.0000E-10  2.0000E-10  2.0000E-10  2.0000E-10  2.0000E-10  2.0000E-10  1.0000E-10  1.0000E-10   0.000    
  14    0.000      2.0000E-10  5.0000E-10  5.0000E-10  5.0000E-10  5.0000E-10  5.0000E-10  2.0000E-10  1.0000E-10   0.000    
  15    0.000       0.000      8.0000E-10  8.0000E-10  8.0000E-10  8.0000E-10   0.000       0.000       0.000       0.000    

                  ET RATE =  5.000000E-10

 USING ET EXTINCTION DEPTH FROM PREVIOUS STRESS PERIOD. CURRENT PERIOD IS:       3

 USING EXTINCTION WATER CONTENT FROM PREVIOUS STRESS PERIOD. CURRENT PERIOD IS:       3

 USING AIR ENTRY PRESSURE FROM PREVIOUS STRESS PERIOD. CURRENT PERIOD IS:       3

 USING ROOT PRESSURE HEAD FROM PREVIOUS STRESS PERIOD. CURRENT PERIOD IS:       3

 USING ROOT ACTIVITY FROM PREVIOUS STRESS PERIOD. CURRENT PERIOD IS:       3

 PROCESSING AG STRESS PERIOD DATA

 READING AG STRESS PERIOD DATA

 READING IRRIGATION SEGMENT

 READING IRRIGATION WELL

 READING SUPPLEMENTAL WELL

 END PROCESSING AG STRESS PERIOD DATA OPTIONS
 
 SOLVING FOR HEAD 
                                                   Max.-Head-Change                         Max.-Flux-Residual
  Residual-Control   Outer-Iter.   Inner-Iter.     Column Row Layer    Maximum-Head-Change  Column Row Layer    Maximum-Flux-Residual          L2-NORM 
          0                 1           2             2    2     1       0.3921640727E-02       2    2    1         0.2048605367E+00      0.4998719366E+00
          0                 2           2             7   13     1      -0.6931948785E-03       7   13    1        -0.3837497749E-01      0.6128776747E-01
          0                 3           1             7   13     1       0.4719176522E-04       7   13    1         0.2685570582E-02      0.4239795562E-02

    ------------------------------------------------
       NWT REQUIRED            3 OUTER ITERATIONS 
       AND A TOTAL OF          5 INNER ITERATIONS.
    ------------------------------------------------

 NO OUTPUT CONTROL FOR STRESS PERIOD    3   TIME STEP    1
 
 SOLVING FOR HEAD 
                                                   Max.-Head-Change                         Max.-Flux-Residual
  Residual-Control   Outer-Iter.   Inner-Iter.     Column Row Layer    Maximum-Head-Change  Column Row Layer    Maximum-Flux-Residual          L2-NORM 
          0                 1           2             2   13     1       0.5737848324E-02       4   13    1         0.3262450960E+00      0.7450786839E+00
          0                 2           2             4   13     1      -0.5480878175E-03       4   13    1        -0.3228390834E-01      0.7315651980E-01
          0                 3           1             4   13     1       0.3677863260E-04       4   13    1         0.2227302336E-02      0.4995162275E-02

    ------------------------------------------------
       NWT REQUIRED            3 OUTER ITERATIONS 
       AND A TOTAL OF          5 INNER ITERATIONS.
    ------------------------------------------------

 NO OUTPUT CONTROL FOR STRESS PERIOD    3   TIME STEP    2
 
 SOLVING FOR HEAD 
                                                   Max.-Head-Change                         Max.-Flux-Residual
  Residual-Control   Outer-Iter.   Inner-Iter.     Column Row Layer    Maximum-Head-Change  Column Row Layer    Maximum-Flux-Residual          L2-NORM 
          0                 1           2             2   13     1       0.5310463294E-02       2   13    1         0.2989811985E+00      0.7084675238E+00
          0                 2           2             4   13     1      -0.4975366923E-03       4   13    1        -0.2928598003E-01      0.6963272701E-01
          0                 3           1             4   13     1       0.3336997042E-04       4   13    1         0.2019443943E-02      0.4761546779E-02

    ------------------------------------------------
       NWT REQUIRED            3 OUTER ITERATIONS 
       AND A TOTAL OF          5 INNER ITERATIONS.
    ------------------------------------------------

 NO OUTPUT CONTROL FOR STRESS PERIOD    3   TIME STEP    3
 
 SOLVING FOR HEAD 
                                                   Max.-Head-Change                         Max.-Flux-Residual
  Residual-Control   Outer-Iter.   Inner-Iter.     Column Row Layer    Maximum-Head-Change  Column Row Layer    Maximum-Flux-Residual          L2-NORM 
          0                 1           2             2   13     1       0.4915335462E-02       2   13    1         0.2767006368E+00      0.6757128720E+00
          0                 2           2             2    2     1      -0.4665859467E-03       4   13    1        -0.2658701655E-01      0.6648371856E-01
          0                 3           1             2    2     1       0.3177276404E-04       4   13    1         0.1833410050E-02      0.4552599550E-02

    ------------------------------------------------
       NWT REQUIRED            3 OUTER ITERATIONS 
       AND A TOTAL OF          5 INNER ITERATIONS.
    ------------------------------------------------

 NO OUTPUT CONTROL FOR STRESS PERIOD    3   TIME STEP    4
 
 SOLVING FOR HEAD 
                                                   Max.-Head-Change                         Max.-Flux-Residual
  Residual-Control   Outer-Iter.   Inner-Iter.     Column Row Layer    Maximum-Head-Change  Column Row Layer    Maximum-Flux-Residual          L2-NORM 
          0                 1           2             2    2     1       0.4764247491E-02       2   13    1         0.2561076174E+00      0.6464225526E+00
          0                 2           2             2    2     1      -0.4634322824E-03       2    2    1        -0.2488671475E-01      0.6366872501E-01
          0                 3           1             2    2     1       0.3155801145E-04       2    2    1         0.1742070209E-02      0.4365937162E-02

    ------------------------------------------------
       NWT REQUIRED            3 OUTER ITERATIONS 
       AND A TOTAL OF          5 INNER ITERATIONS.
    ------------------------------------------------

 NO OUTPUT CONTROL FOR STRESS PERIOD    3   TIME STEP    5
 
 SOLVING FOR HEAD 
                                                   Max.-Head-Change                         Max.-Flux-Residual
  Residual-Control   Outer-Iter.   Inner-Iter.     Column Row Layer    Maximum-Head-Change  Column Row Layer    Maximum-Flux-Residual          L2-NORM 
          0                 1           2             2    2     1       0.4732200352E-02       2    2    1         0.2471810290E+00      0.6202312920E+00
          0                 2           2             2    2     1      -0.4603149523E-03       2    2    1        -0.2471816257E-01      0.6115467715E-01
          0                 3           1             2    2     1       0.3134573327E-04       2    2    1         0.1730271577E-02      0.4199957212E-02

    ------------------------------------------------
       NWT REQUIRED            3 OUTER ITERATIONS 
       AND A TOTAL OF          5 INNER ITERATIONS.
    ------------------------------------------------

 NO OUTPUT CONTROL FOR STRESS PERIOD    3   TIME STEP    6
 
 SOLVING FOR HEAD 
                                                   Max.-Head-Change                         Max.-Flux-Residual
  Residual-Control   Outer-Iter.   Inner-Iter.     Column Row Layer    Maximum-Head-Change  Column Row Layer    Maximum-Flux-Residual          L2-NORM 
          0                 1           2             2    2     1       0.4700606368E-02       2    2    1         0.2455194204E+00      0.5968142160E+00
          0                 2           2             2    2     1      -0.4572417024E-03       2    2    1        -0.2455200061E-01      0.5890799368E-01
          0                 3           1             2    2     1       0.3113645612E-04       2    2    1         0.1718640229E-02      0.4051671167E-02

    ------------------------------------------------
       NWT REQUIRED            3 OUTER ITERATIONS 
       AND A TOTAL OF          5 INNER ITERATIONS.
    ------------------------------------------------

 NO OUTPUT CONTROL FOR STRESS PERIOD    3   TIME STEP    7
 
 SOLVING FOR HEAD 
                                                   Max.-Head-Change                         Max.-Flux-Residual
  Residual-Control   Outer-Iter.   Inner-Iter.     Column Row Layer    Maximum-Head-Change  Column Row Layer    Maximum-Flux-Residual          L2-NORM 
          0                 1           2             2    2     1       0.4669458605E-02       2    2    1         0.2438813074E+00      0.5758725219E+00
          0                 2           2             2    2     1      -0.4542118580E-03       2    2    1        -0.2438818822E-01      0.5689915039E-01
          0                 3           1             2    2     1       0.3093013525E-04       2    2    1         0.1707173378E-02      0.3920168642E-02

    ------------------------------------------------
       NWT REQUIRED            3 OUTER ITERATIONS 
       AND A TOTAL OF          5 INNER ITERATIONS.
    ------------------------------------------------

 NO OUTPUT CONTROL FOR STRESS PERIOD    3   TIME STEP    8
 
 SOLVING FOR HEAD 
                                                   Max.-Head-Change                         Max.-Flux-Residual
  Residual-Control   Outer-Iter.   Inner-Iter.     Column Row Layer    Maximum-Head-Change  Column Row Layer    Maximum-Flux-Residual          L2-NORM 
          0                 1           2             2    2     1       0.4638749856E-02       2    2    1         0.2422663304E+00      0.5571329727E+00
          0                 2           2             2    2     1      -0.4512247179E-03       2    2    1        -0.2422668944E-01      0.5510234032E-01
          0                 3           1             2    2     1       0.3072672238E-04       2    2    1         0.1695868471E-02      0.3800779545E-02

    ------------------------------------------------
       NWT REQUIRED            3 OUTER ITERATIONS 
       AND A TOTAL OF          5 INNER ITERATIONS.
    ------------------------------------------------

 NO OUTPUT CONTROL FOR STRESS PERIOD    3   TIME STEP    9
 
 SOLVING FOR HEAD 
                                                   Max.-Head-Change                         Max.-Flux-Residual
  Residual-Control   Outer-Iter.   Inner-Iter.     Column Row Layer    Maximum-Head-Change  Column Row Layer    Maximum-Flux-Residual          L2-NORM 
          0                 1           2             2    2     1       0.4608473399E-02       2    2    1         0.2406741158E+00      0.5403538691E+00
          0                 2           2             2    2     1      -0.4482796287E-03       2    2    1        -0.2406746696E-01      0.5349350062E-01
          0                 3           1             2    2     1       0.3052617279E-04       2    2    1         0.1684722895E-02      0.3694716576E-02

    ------------------------------------------------
       NWT REQUIRED            3 OUTER ITERATIONS 
       AND A TOTAL OF          5 INNER ITERATIONS.
    ------------------------------------------------

 NO OUTPUT CONTROL FOR STRESS PERIOD    3   TIME STEP   10
 
 SOLVING FOR HEAD 
                                                   Max.-Head-Change                         Max.-Flux-Residual
  Residual-Control   Outer-Iter.   Inner-Iter.     Column Row Layer    Maximum-Head-Change  Column Row Layer    Maximum-Flux-Residual          L2-NORM 
          0                 1           2             2    2     1       0.4578535511E-02       2    2    1         0.2390997796E+00      0.5253116936E+00
          0                 2           2             2    2     1      -0.4453674732E-03       2    2    1        -0.2391003232E-01      0.5205008379E-01
          0                 3           1             2    2     1       0.3032786614E-04       2    2    1         0.1673702482E-02      0.3600745662E-02

    ------------------------------------------------
       NWT REQUIRED            3 OUTER ITERATIONS 
       AND A TOTAL OF          5 INNER ITERATIONS.
    ------------------------------------------------

 NO OUTPUT CONTROL FOR STRESS PERIOD    3   TIME STEP   11
 
 SOLVING FOR HEAD 
                                                   Max.-Head-Change                         Max.-Flux-Residual
  Residual-Control   Outer-Iter.   Inner-Iter.     Column Row Layer    Maximum-Head-Change  Column Row Layer    Maximum-Flux-Residual          L2-NORM 
          0                 1           2             2    2     1       0.4549016790E-02       2    2    1         0.2375475332E+00      0.5118069374E+00
          0                 2           2             2    2     1      -0.4424960918E-03       2    2    1        -0.2375480670E-01      0.5075393659E-01
          0                 3           1             2    2     1       0.3013233568E-04       2    2    1         0.1662836691E-02      0.3513181357E-02

    ------------------------------------------------
       NWT REQUIRED            3 OUTER ITERATIONS 
       AND A TOTAL OF          5 INNER ITERATIONS.
    ------------------------------------------------

 NO OUTPUT CONTROL FOR STRESS PERIOD    3   TIME STEP   12
 
 SOLVING FOR HEAD 
                                                   Max.-Head-Change                         Max.-Flux-Residual
  Residual-Control   Outer-Iter.   Inner-Iter.     Column Row Layer    Maximum-Head-Change  Column Row Layer    Maximum-Flux-Residual          L2-NORM 
          0                 1           2             2    2     1       0.4519910909E-02       2    2    1         0.2360170202E+00      0.4996684567E+00
          0                 2           2             2    2     1      -0.4396648691E-03       2    2    1        -0.2360175446E-01      0.4959089536E-01
          0                 3           1             2    2     1       0.2993953974E-04       2    2    1         0.1652123025E-02      0.3436755389E-02

    ------------------------------------------------
       NWT REQUIRED            3 OUTER ITERATIONS 
       AND A TOTAL OF          5 INNER ITERATIONS.
    ------------------------------------------------

 NO OUTPUT CONTROL FOR STRESS PERIOD    3   TIME STEP   13
 
 SOLVING FOR HEAD 
                                                   Max.-Head-Change                         Max.-Flux-Residual
  Residual-Control   Outer-Iter.   Inner-Iter.     Column Row Layer    Maximum-Head-Change  Column Row Layer    Maximum-Flux-Residual          L2-NORM 
          0                 1           2             2    2     1       0.4491211212E-02       2    2    1         0.2345079124E+00      0.4887377962E+00
          0                 2           2             2    2     1      -0.4368731566E-03       2    2    1        -0.2345084272E-01      0.4853933631E-01
          0                 3           1             2    2     1       0.2974943478E-04       2    2    1         0.1641559221E-02      0.3367082809E-02

    ------------------------------------------------
       NWT REQUIRED            3 OUTER ITERATIONS 
       AND A TOTAL OF          5 INNER ITERATIONS.
    ------------------------------------------------

 NO OUTPUT CONTROL FOR STRESS PERIOD    3   TIME STEP   14
 
 SOLVING FOR HEAD 
                                                   Max.-Head-Change                         Max.-Flux-Residual
  Residual-Control   Outer-Iter.   Inner-Iter.     Column Row Layer    Maximum-Head-Change  Column Row Layer    Maximum-Flux-Residual          L2-NORM 
          0                 1           2             2    2     1       0.4462824820E-02       2    2    1         0.2330153288E+00      0.4788720613E+00
          0                 2           2             2    2     1      -0.4341119208E-03       2    2    1        -0.2330158345E-01      0.4759143368E-01
          0                 3           1             2    2     1       0.2956140520E-04       2    2    1         0.1631111074E-02      0.3304041970E-02

    ------------------------------------------------
       NWT REQUIRED            3 OUTER ITERATIONS 
       AND A TOTAL OF          5 INNER ITERATIONS.
    ------------------------------------------------

 NO OUTPUT CONTROL FOR STRESS PERIOD    3   TIME STEP   15
 
 SOLVING FOR HEAD 
                                                   Max.-Head-Change                         Max.-Flux-Residual
  Residual-Control   Outer-Iter.   Inner-Iter.     Column Row Layer    Maximum-Head-Change  Column Row Layer    Maximum-Flux-Residual          L2-NORM 
          0                 1           2             2    2     1       0.4434832751E-02       2    2    1         0.2315435257E+00      0.4699384686E+00
          0                 2           2             2    2     1      -0.4313890423E-03       2    2    1        -0.2315440224E-01      0.4673193446E-01
          0                 3           1             2    2     1       0.2937598731E-04       2    2    1         0.1620808387E-02      0.3247045045E-02

    ------------------------------------------------
       NWT REQUIRED            3 OUTER ITERATIONS 
       AND A TOTAL OF          5 INNER ITERATIONS.
    ------------------------------------------------

 NO OUTPUT CONTROL FOR STRESS PERIOD    3   TIME STEP   16
 
 SOLVING FOR HEAD 
                                                   Max.-Head-Change                         Max.-Flux-Residual
  Residual-Control   Outer-Iter.   Inner-Iter.     Column Row Layer    Maximum-Head-Change  Column Row Layer    Maximum-Flux-Residual          L2-NORM 
          0                 1           2             2    2     1       0.4407229088E-02       2    2    1         0.2300921678E+00      0.4618380669E+00
          0                 2           2             2    2     1      -0.4287039453E-03       2    2    1        -0.2300926558E-01      0.4595220682E-01
          0                 3           1             2    2     1       0.2919314206E-04       2    2    1         0.1610648823E-02      0.3194967980E-02

    ------------------------------------------------
       NWT REQUIRED            3 OUTER ITERATIONS 
       AND A TOTAL OF          5 INNER ITERATIONS.
    ------------------------------------------------

 NO OUTPUT CONTROL FOR STRESS PERIOD    3   TIME STEP   17
 
 SOLVING FOR HEAD 
                                                   Max.-Head-Change                         Max.-Flux-Residual
  Residual-Control   Outer-Iter.   Inner-Iter.     Column Row Layer    Maximum-Head-Change  Column Row Layer    Maximum-Flux-Residual          L2-NORM 
          0                 1           2             2    2     1       0.4379997062E-02       2    2    1         0.2286604169E+00      0.4544617525E+00
          0                 2           2             2    2     1      -0.4260549990E-03       2    2    1        -0.2286608963E-01      0.4524107121E-01
          0                 3           1             2    2     1       0.2901275916E-04       2    2    1         0.1600626526E-02      0.3147893789E-02

    ------------------------------------------------
       NWT REQUIRED            3 OUTER ITERATIONS 
       AND A TOTAL OF          5 INNER ITERATIONS.
    ------------------------------------------------

 NO OUTPUT CONTROL FOR STRESS PERIOD    3   TIME STEP   18
 
 SOLVING FOR HEAD 
                                                   Max.-Head-Change                         Max.-Flux-Residual
  Residual-Control   Outer-Iter.   Inner-Iter.     Column Row Layer    Maximum-Head-Change  Column Row Layer    Maximum-Flux-Residual          L2-NORM 
          0                 1           2             2    2     1       0.4353151369E-02       2    2    1         0.2272489978E+00      0.4477424130E+00
          0                 2           2             2    2     1      -0.4234436319E-03       2    2    1        -0.2272494686E-01      0.4459267484E-01
          0                 3           1             2    2     1       0.2883493470E-04       2    2    1         0.1590746523E-02      0.3105138536E-02

    ------------------------------------------------
       NWT REQUIRED            3 OUTER ITERATIONS 
       AND A TOTAL OF          5 INNER ITERATIONS.
    ------------------------------------------------

 NO OUTPUT CONTROL FOR STRESS PERIOD    3   TIME STEP   19
 
 SOLVING FOR HEAD 
                                                   Max.-Head-Change                         Max.-Flux-Residual
  Residual-Control   Outer-Iter.   Inner-Iter.     Column Row Layer    Maximum-Head-Change  Column Row Layer    Maximum-Flux-Residual          L2-NORM 
          0                 1           2             2    2     1       0.4326589338E-02       2    2    1         0.2258525414E+00      0.4415879275E+00
          0                 2           2             2    2     1      -0.4208598585E-03       2    2    1        -0.2258530042E-01      0.4399820735E-01
          0                 3           1             2    2     1       0.2865898918E-04       2    2    1         0.1580971273E-02      0.3065258862E-02

    ------------------------------------------------
       NWT REQUIRED            3 OUTER ITERATIONS 
       AND A TOTAL OF          5 INNER ITERATIONS.
    ------------------------------------------------

 NO OUTPUT CONTROL FOR STRESS PERIOD    3   TIME STEP   20
 
 SOLVING FOR HEAD 
                                                   Max.-Head-Change                         Max.-Flux-Residual
  Residual-Control   Outer-Iter.   Inner-Iter.     Column Row Layer    Maximum-Head-Change  Column Row Layer    Maximum-Flux-Residual          L2-NORM 
          0                 1           2             2    2     1       0.4300478965E-02       2    2    1         0.2244798663E+00      0.4359393856E+00
          0                 2           2             2    2     1      -0.4183200194E-03       2    2    1        -0.2244803214E-01      0.4345138173E-01
          0                 3           1             2    2     1       0.2848603546E-04       2    2    1         0.1571362492E-02      0.3028301030E-02

    ------------------------------------------------
       NWT REQUIRED            3 OUTER ITERATIONS 
       AND A TOTAL OF          5 INNER ITERATIONS.
    ------------------------------------------------

 NO OUTPUT CONTROL FOR STRESS PERIOD    3   TIME STEP   21
 
 SOLVING FOR HEAD 
                                                   Max.-Head-Change                         Max.-Flux-Residual
  Residual-Control   Outer-Iter.   Inner-Iter.     Column Row Layer    Maximum-Head-Change  Column Row Layer    Maximum-Flux-Residual          L2-NORM 
          0                 1           2             2    2     1       0.4274640541E-02       2    2    1         0.2231215352E+00      0.4307383254E+00
          0                 2           2             2    2     1      -0.4158066334E-03       2    2    1        -0.2231219824E-01      0.4294771498E-01
          0                 3           1             2    2     1       0.2831488352E-04       2    2    1         0.1561854118E-02      0.2994621151E-02

    ------------------------------------------------
       NWT REQUIRED            3 OUTER ITERATIONS 
       AND A TOTAL OF          5 INNER ITERATIONS.
    ------------------------------------------------

 NO OUTPUT CONTROL FOR STRESS PERIOD    3   TIME STEP   22
 
 SOLVING FOR HEAD 
                                                   Max.-Head-Change                         Max.-Flux-Residual
  Residual-Control   Outer-Iter.   Inner-Iter.     Column Row Layer    Maximum-Head-Change  Column Row Layer    Maximum-Flux-Residual          L2-NORM 
          0                 1           2             2    2     1       0.4249069433E-02       2    2    1         0.2217773042E+00      0.4259341993E+00
          0                 2           2             2    2     1      -0.4133192505E-03       2    2    1        -0.2217777439E-01      0.4248109880E-01
          0                 3           1             2    2     1       0.2814550214E-04       2    2    1         0.1552444457E-02      0.2963466062E-02

    ------------------------------------------------
       NWT REQUIRED            3 OUTER ITERATIONS 
       AND A TOTAL OF          5 INNER ITERATIONS.
    ------------------------------------------------

 NO OUTPUT CONTROL FOR STRESS PERIOD    3   TIME STEP   23
 
 SOLVING FOR HEAD 
                                                   Max.-Head-Change                         Max.-Flux-Residual
  Residual-Control   Outer-Iter.   Inner-Iter.     Column Row Layer    Maximum-Head-Change  Column Row Layer    Maximum-Flux-Residual          L2-NORM 
          0                 1           2             2    2     1       0.4223934285E-02       2    2    1         0.2204560075E+00      0.4214811018E+00
          0                 2           2             2    2     1      -0.4108742747E-03       2    2    1        -0.2204564396E-01      0.4204810077E-01
          0                 3           1             2    2     1       0.2797900841E-04       2    2    1         0.1543195329E-02      0.2934244818E-02

    ------------------------------------------------
       NWT REQUIRED            3 OUTER ITERATIONS 
       AND A TOTAL OF          5 INNER ITERATIONS.
    ------------------------------------------------

 NO OUTPUT CONTROL FOR STRESS PERIOD    3   TIME STEP   24
 
 SOLVING FOR HEAD 
                                                   Max.-Head-Change                         Max.-Flux-Residual
  Residual-Control   Outer-Iter.   Inner-Iter.     Column Row Layer    Maximum-Head-Change  Column Row Layer    Maximum-Flux-Residual          L2-NORM 
          0                 1           2             2    2     1       0.4199142071E-02       2    2    1         0.2191527778E+00      0.4173408621E+00
          0                 2           2             2    2     1      -0.4084626574E-03       2    2    1        -0.2191532027E-01      0.4164516098E-01
          0                 3           1             2    2     1       0.2781478627E-04       2    2    1         0.1534072676E-02      0.2906891072E-02

    ------------------------------------------------
       NWT REQUIRED            3 OUTER ITERATIONS 
       AND A TOTAL OF          5 INNER ITERATIONS.
    ------------------------------------------------

 NO OUTPUT CONTROL FOR STRESS PERIOD    3   TIME STEP   25
 
 SOLVING FOR HEAD 
                                                   Max.-Head-Change                         Max.-Flux-Residual
  Residual-Control   Outer-Iter.   Inner-Iter.     Column Row Layer    Maximum-Head-Change  Column Row Layer    Maximum-Flux-Residual          L2-NORM 
          0                 1           2             2    2     1       0.4174600530E-02       2    2    1         0.2178627913E+00      0.4134797904E+00
          0                 2           2             2    2     1      -0.4060754240E-03       2    2    1        -0.2178632090E-01      0.4126956013E-01
          0                 3           1             2    2     1       0.2765222511E-04       2    2    1         0.1525042735E-02      0.2881935758E-02

    ------------------------------------------------
       NWT REQUIRED            3 OUTER ITERATIONS 
       AND A TOTAL OF          5 INNER ITERATIONS.
    ------------------------------------------------

 NO OUTPUT CONTROL FOR STRESS PERIOD    3   TIME STEP   26
 
 SOLVING FOR HEAD 
                                                   Max.-Head-Change                         Max.-Flux-Residual
  Residual-Control   Outer-Iter.   Inner-Iter.     Column Row Layer    Maximum-Head-Change  Column Row Layer    Maximum-Flux-Residual          L2-NORM 
          0                 1           2             2    2     1       0.4150391834E-02       2    2    1         0.2165903393E+00      0.4098650537E+00
          0                 2           2             2    2     1      -0.4037205679E-03       2    2    1        -0.2165907503E-01      0.4092682611E-01
          0                 3           1             2    2     1       0.2749186784E-04       2    2    1         0.1516135520E-02      0.2858546844E-02

    ------------------------------------------------
       NWT REQUIRED            3 OUTER ITERATIONS 
       AND A TOTAL OF          5 INNER ITERATIONS.
    ------------------------------------------------

 NO OUTPUT CONTROL FOR STRESS PERIOD    3   TIME STEP   27
 
 SOLVING FOR HEAD 
                                                   Max.-Head-Change                         Max.-Flux-Residual
  Residual-Control   Outer-Iter.   Inner-Iter.     Column Row Layer    Maximum-Head-Change  Column Row Layer    Maximum-Flux-Residual          L2-NORM 
          0                 1           2             2    2     1       0.4126511094E-02       2    2    1         0.2153351449E+00      0.4064678185E+00
          0                 2           2             2    2     1      -0.4013976122E-03       2    2    1        -0.2153355489E-01      0.4058387104E-01
          0                 3           1             2    2     1       0.2733368347E-04       2    2    1         0.1507349112E-02      0.2835223243E-02

    ------------------------------------------------
       NWT REQUIRED            3 OUTER ITERATIONS 
       AND A TOTAL OF          5 INNER ITERATIONS.
    ------------------------------------------------

 NO OUTPUT CONTROL FOR STRESS PERIOD    3   TIME STEP   28
 
 SOLVING FOR HEAD 
                                                   Max.-Head-Change                         Max.-Flux-Residual
  Residual-Control   Outer-Iter.   Inner-Iter.     Column Row Layer    Maximum-Head-Change  Column Row Layer    Maximum-Flux-Residual          L2-NORM 
          0                 1           2             2    2     1       0.4102953139E-02       2    2    1         0.2140969548E+00      0.4032579467E+00
          0                 2           2             2    2     1      -0.3991060559E-03       2    2    1        -0.2140973524E-01      0.4026944594E-01
          0                 3           1             2    2     1       0.2717763674E-04       2    2    1         0.1498681733E-02      0.2814509076E-02

    ------------------------------------------------
       NWT REQUIRED            3 OUTER ITERATIONS 
       AND A TOTAL OF          5 INNER ITERATIONS.
    ------------------------------------------------

 NO OUTPUT CONTROL FOR STRESS PERIOD    3   TIME STEP   29
 
 SOLVING FOR HEAD 
                                                   Max.-Head-Change                         Max.-Flux-Residual
  Residual-Control   Outer-Iter.   Inner-Iter.     Column Row Layer    Maximum-Head-Change  Column Row Layer    Maximum-Flux-Residual          L2-NORM 
          0                 1           2             4   13     1       0.9279378985E-02       4   13    1         0.5331634570E+00      0.1129361325E+01
          0                 2           2             4   13     1      -0.8928503052E-03       4   13    1        -0.5274537437E-01      0.1105072739E+00
          0                 3           1             4   13     1       0.5989610090E-04       4   13    1         0.3637934295E-02      0.7507072825E-02

    ------------------------------------------------
       NWT REQUIRED            3 OUTER ITERATIONS 
       AND A TOTAL OF          5 INNER ITERATIONS.
    ------------------------------------------------

 NO OUTPUT CONTROL FOR STRESS PERIOD    3   TIME STEP   30



 STREAM LISTING     PERIOD      3   STEP       30

 LAYER ROW COL. STREAM  RCH.  FLOW INTO     FLOW TO   FLOW OUT OF   OVRLND.     DIRECT     STREAM       STREAM     STREAM     STREAM   STREAMBED  STREAMBED
                SEG.NO.  NO.  STRM. RCH.    AQUIFER    STRM. RCH.    RUNOFF     PRECIP       ET          HEAD       DEPTH      WIDTH   CONDCTNC.   GRADIENT

   1    1    1     1     1    5.4376E+01  3.5202E-01   5.4024E+01  0.000E+00  0.000E+00  0.000E+00  1.09450E+03  1.455E+00  1.756E+01  7.901E-02  1.485E+00
   1    2    2     1     2    5.4024E+01  5.4505E-01   5.3479E+01  0.000E+00  0.000E+00  0.000E+00  1.08951E+03  1.449E+00  1.750E+01  1.225E-01  1.483E+00
   1    3    3     1     3    5.3479E+01  4.6474E-01   5.3014E+01  0.000E+00  0.000E+00  0.000E+00  1.08386E+03  1.443E+00  1.743E+01  1.046E-01  1.481E+00
   1    3    4     1     4    5.3014E+01  4.2788E-01   5.2587E+01  0.000E+00  0.000E+00  0.000E+00  1.07884E+03  1.437E+00  1.738E+01  9.643E-02  1.479E+00
   1    4    5     2     1    5.0587E+01  3.7745E-01   5.0209E+01  0.000E+00  0.000E+00  0.000E+00  1.07377E+03  1.839E+00  1.200E+01  7.800E-02  1.613E+00
   1    5    6     2     2    5.0209E+01  2.8990E-01   4.9919E+01  0.000E+00  0.000E+00  0.000E+00  1.06834E+03  1.832E+00  1.200E+01  6.000E-02  1.611E+00
   1    6    6     2     3    4.9919E+01  2.8952E-01   4.9630E+01  0.000E+00  0.000E+00  0.000E+00  1.06362E+03  1.825E+00  1.200E+01  6.000E-02  1.608E+00
   1    7    6     2     4    4.9630E+01  2.8914E-01   4.9341E+01  0.000E+00  0.000E+00  0.000E+00  1.05889E+03  1.819E+00  1.200E+01  6.000E-02  1.606E+00
   1    8    6     2     5    4.9341E+01  2.8876E-01   4.9052E+01  0.000E+00  0.000E+00  0.000E+00  1.05417E+03  1.813E+00  1.200E+01  6.000E-02  1.604E+00
   1    3    5     3     1    2.0000E+00  2.8252E-01   1.7175E+00  0.000E+00  0.000E+00  0.000E+00  1.07555E+03  1.909E+00  9.636E+00  7.227E-02  1.955E+00
   1    3    6     3     2    1.7175E+00  2.4905E-01   1.4684E+00  0.000E+00  0.000E+00  0.000E+00  1.07264E+03  1.727E+00  8.909E+00  6.682E-02  1.864E+00
   1    3    7     3     3    1.4684E+00  1.9718E-01   1.2712E+00  0.000E+00  0.000E+00  0.000E+00  1.06987E+03  1.555E+00  8.218E+00  5.547E-02  1.777E+00
   1    4    8     3     4    1.2712E+00  2.2567E-01   1.0456E+00  0.000E+00  0.000E+00  0.000E+00  1.06682E+03  1.364E+00  7.455E+00  6.709E-02  1.682E+00
   1    5    8     3     5    1.0456E+00  1.5790E-01   8.8768E-01  0.000E+00  0.000E+00  0.000E+00  1.06362E+03  1.164E+00  6.655E+00  4.991E-02  1.582E+00
   1    6    8     3     6    8.8768E-01  5.5980E-02   8.3170E-01  0.000E+00  0.000E+00  0.000E+00  1.06158E+03  1.036E+00  6.145E+00  1.844E-02  1.518E+00
   1    5   10     4     1    1.0000E+01  9.0919E-02   9.9091E+00  0.000E+00  0.000E+00  0.000E+00  1.07836E+03  6.368E-01  1.000E+01  2.500E-02  1.212E+00
   1    5    9     4     2    9.9091E+00  1.8158E-01   9.7275E+00  0.000E+00  0.000E+00  0.000E+00  1.07154E+03  6.315E-01  1.000E+01  5.000E-02  1.211E+00
   1    6    8     4     3    9.7275E+00  1.2689E-01   9.6006E+00  0.000E+00  0.000E+00  0.000E+00  1.06381E+03  6.256E-01  1.000E+01  3.500E-02  1.209E+00
   1    6    8     5     1    1.0432E+01  2.2686E-01   1.0205E+01  0.000E+00  0.000E+00  0.000E+00  1.05868E+03  6.790E-01  1.542E+01  6.166E-02  1.226E+00
   1    7    7     5     2    1.0205E+01  2.7894E-01   9.9265E+00  0.000E+00  0.000E+00  0.000E+00  1.05417E+03  6.732E-01  1.519E+01  7.594E-02  1.224E+00
   1    8    7     5     3    9.9265E+00  1.9221E-01   9.7343E+00  0.000E+00  0.000E+00  0.000E+00  1.04992E+03  6.676E-01  1.497E+01  5.241E-02  1.223E+00
   1    8    6     5     4    9.7343E+00  1.3577E-01   9.5985E+00  0.000E+00  0.000E+00  0.000E+00  1.04691E+03  6.637E-01  1.482E+01  3.706E-02  1.221E+00
   1    9    6     6     1    5.8650E+01  3.0201E-01   5.8348E+01  0.000E+00  0.000E+00  0.000E+00  1.04476E+03  2.034E+00  1.200E+01  6.000E-02  1.678E+00
   1   10    7     6     2    5.8348E+01  3.0164E-01   5.8047E+01  0.000E+00  0.000E+00  0.000E+00  1.04021E+03  2.027E+00  1.200E+01  6.000E-02  1.676E+00
   1   11    7     6     3    5.8047E+01  3.0126E-01   5.7745E+01  0.000E+00  0.000E+00  0.000E+00  1.03566E+03  2.021E+00  1.200E+01  6.000E-02  1.674E+00
   1   12    7     6     4    5.7745E+01  3.0088E-01   5.7445E+01  0.000E+00  0.000E+00  0.000E+00  1.03111E+03  2.015E+00  1.200E+01  6.000E-02  1.672E+00
   1   13    7     6     5    5.7445E+01  1.9557E-02   5.7425E+01  0.000E+00  0.000E+00  0.000E+00  1.02792E+03  2.011E+00  1.200E+01  2.400E-02  2.716E-01
   1   14    9     7     1    1.5000E+02  1.3350E+00   1.4866E+02  0.000E+00  0.000E+00  0.000E+00  1.03987E+03  2.288E+00  5.529E+01  5.593E-01  7.957E-01
   1   13    8     7     2    1.4866E+02  1.8309E+00   1.4683E+02  0.000E+00  0.000E+00  0.000E+00  1.03478E+03  2.279E+00  5.526E+01  6.148E-01  9.927E-01
   1   13    7     7     3    1.4683E+02  1.4433E+00   1.4539E+02  0.000E+00  0.000E+00  0.000E+00  1.02969E+03  2.271E+00  5.522E+01  5.585E-01  8.615E-01
   1   13    6     8     1    2.0282E+02  1.0334E+00   2.0178E+02  0.000E+00  0.000E+00  0.000E+00  1.02503E+03  3.151E+00  4.569E+01  4.656E-01  7.398E-01
   1   13    5     8     2    2.0178E+02  2.2869E-01   2.0155E+02  0.000E+00  0.000E+00  0.000E+00  1.01877E+03  3.148E+00  4.564E+01  4.651E-01  1.639E-01
   1   13    4     8     3    2.0155E+02 -2.0703E+00   2.0362E+02  0.000E+00  0.000E+00  0.000E+00  1.01253E+03  3.153E+00  4.572E+01  4.659E+00 -1.481E-01
   1   13    3     8     4    2.0362E+02 -3.2634E+00   2.0689E+02  0.000E+00  0.000E+00  0.000E+00  1.00629E+03  3.168E+00  4.594E+01  4.682E+00 -2.324E-01
   1   13    2     8     5    2.0689E+02 -2.0910E+00   2.0898E+02  0.000E+00  0.000E+00  0.000E+00  1.00006E+03  3.184E+00  4.617E+01  4.704E+00 -1.482E-01
   1   13    1     8     6    2.0898E+02 -1.6691E+00   2.1065E+02  0.000E+00  0.000E+00  0.000E+00  9.95070E+02  3.195E+00  4.632E+01  2.832E+00 -1.964E-01
   1    8    6     9     1    0.0000E+00  0.0000E+00   0.0000E+00  0.000E+00  0.000E+00  0.000E+00  1.07875E+03  0.000E+00  4.000E+00  0.000E+00  1.000E+00
   1    8    5     9     2    0.0000E+00  0.0000E+00   0.0000E+00  0.000E+00  0.000E+00  0.000E+00  1.07825E+03  0.000E+00  4.000E+00  0.000E+00  1.000E+00





UNSATURATED ZONE PACKAGE VOLUMETRIC BUDGET FOR  TIME STEP    30 STRESS PERIOD    3
  ------------------------------------------------------------------------------



     CUMULATIVE VOLUMES      L**3       RATES FOR THIS TIME STEP      L**3/T
     ------------------                 ------------------------

           IN:                                      IN:
           ---                                      ---
        INFILTRATION =     4531073.7455          INFILTRATION =           0.8475

          OUT:                                     OUT:
          ----                                     ----
              UZF ET =     3944985.5897                UZF ET =           0.7500
        UZF RECHARGE =       73224.0000          UZF RECHARGE =       0.0000E+00

            IN - OUT =      512864.1558              IN - OUT =       9.7500E-02

          STORAGE:                                 STORAGE:
          --------                                 --------
      STORAGE CHANGE =      512864.1946        STORAGE CHANGE =       9.7500E-02

 PERCENT DISCREPANCY IS DIFFERENCE BETWEEN IN-OUT MINUS CHANGE IN STORAGE
 DIVIDED BY THE AVERAGE OF IN AND OUT TIMES 100

 PERCENT DISCREPANCY =          -0.00     PERCENT DISCREPANCY =           0.00






1
  VOLUMETRIC BUDGET FOR AGRICULTURAL FIELDS AT  END OF TIME STEP   30, STRESS PERIOD   3
  ------------------------------------------------------------------------------

     CUMULATIVE VOLUMES      L**3       RATES FOR THIS TIME STEP      L**3/T
     ------------------                 ------------------------

           IN:                                      IN:
           ---                                      ---
           AG WELLS      =           0.0000             AG WELLS      =           0.0000
      DIVERSION SEGMENTS =           0.0000        DIVERSION SEGMENTS =           0.0000
           GW IRRIGATION =           0.0000             GW IRRIGATION =           0.0000
           SW IRRIGATION =           0.0000             SW IRRIGATION =           0.0000
        SYSTEM LOSSES GW =           0.0000          SYSTEM LOSSES GW =           0.0000
        SYSTEM LOSSES SW =           0.0000          SYSTEM LOSSES SW =           0.0000

                TOTAL IN =           0.0000                  TOTAL IN =           0.0000

          OUT:                                     OUT:
          ----                                     ----
           AG WELLS      =           0.0000             AG WELLS      =           0.0000
      DIVERSION SEGMENTS =           0.0000        DIVERSION SEGMENTS =           0.0000
           GW IRRIGATION =           0.0000             GW IRRIGATION =           0.0000
           SW IRRIGATION =           0.0000             SW IRRIGATION =           0.0000
        SYSTEM LOSSES GW =           0.0000          SYSTEM LOSSES GW =           0.0000
        SYSTEM LOSSES SW =           0.0000          SYSTEM LOSSES SW =           0.0000

               TOTAL OUT =           0.0000                 TOTAL OUT =           0.0000

                IN - OUT =           0.0000                  IN - OUT =           0.0000

     PERCENT DISCREPANCY =           0.00         PERCENT DISCREPANCY =           0.00



1
  VOLUMETRIC BUDGET FOR ENTIRE MODEL AT END OF TIME STEP   30, STRESS PERIOD   3
  ------------------------------------------------------------------------------

     CUMULATIVE VOLUMES      L**3       RATES FOR THIS TIME STEP      L**3/T
     ------------------                 ------------------------

           IN:                                      IN:
           ---                                      ---
             STORAGE     =     3122516.0000               STORAGE     =           0.4872
       CONSTANT HEAD     =           0.0000         CONSTANT HEAD     =           0.0000
     HEAD DEP BOUNDS     =     1527280.1250       HEAD DEP BOUNDS     =           0.2857
      STREAM LEAKAGE     =    61979672.0000        STREAM LEAKAGE     =          12.8226
        UZF RECHARGE     =       73223.9531          UZF RECHARGE     =           0.0000
               GW ET     =           0.0000                 GW ET     =           0.0000
     SURFACE LEAKAGE     =           0.0000       SURFACE LEAKAGE     =           0.0000
           AG WELLS      =           0.0000             AG WELLS      =           0.0000

                TOTAL IN =    66702692.0000                  TOTAL IN =          13.5955

          OUT:                                     OUT:
          ----                                     ----
             STORAGE     =     9107252.0000               STORAGE     =           4.2117
       CONSTANT HEAD     =           0.0000         CONSTANT HEAD     =           0.0000
     HEAD DEP BOUNDS     =     1544993.8750       HEAD DEP BOUNDS     =           0.2910
      STREAM LEAKAGE     =    56052144.0000        STREAM LEAKAGE     =           9.0938
        UZF RECHARGE     =           0.0000          UZF RECHARGE     =           0.0000
               GW ET     =           0.0000                 GW ET     =           0.0000
     SURFACE LEAKAGE     =           0.0000       SURFACE LEAKAGE     =           0.0000
           AG WELLS      =           0.0000             AG WELLS      =           0.0000

               TOTAL OUT =    66704392.0000                 TOTAL OUT =          13.5965

                IN - OUT =       -1700.0000                  IN - OUT =      -1.0576E-03

     PERCENT DISCREPANCY =          -0.00         PERCENT DISCREPANCY =          -0.01






         TIME SUMMARY AT END OF TIME STEP   30 IN STRESS PERIOD    3
                    SECONDS     MINUTES      HOURS       DAYS        YEARS
                    -----------------------------------------------------------
   TIME STEP LENGTH  87667.      1461.1      24.352      1.0147     2.77799E-03
 STRESS PERIOD TIME 2.63000E+06  43833.      730.56      30.440     8.33397E-02
         TOTAL TIME 5.34640E+06  89107.      1485.1      61.880     0.16942    
1
1
                            STRESS PERIOD NO.    4, LENGTH =   2630000.    
                            -----------------------------------------------

                              NUMBER OF TIME STEPS =    30

                               MULTIPLIER FOR DELT =     1.000

                            INITIAL TIME STEP SIZE =   87666.66    

 REUSING NON-PARAMETER GHB CELLS FROM LAST STRESS PERIOD

      2 GHB CELLS

 REUSING STREAM SEGMENT DATA FROM LAST STRESS PERIOD



            AREAL INFILTRATION RATE
 READING ON UNIT   19 WITH FORMAT: (FREE)              

            1           2           3           4           5           6           7           8           9          10
 ........................................................................................................................
   1   1.0000E-10  2.0000E-10   0.000       0.000       0.000       0.000       0.000       0.000       0.000       0.000    
   2   2.0000E-10  1.0000E-10  2.0000E-10   0.000       0.000      8.0000E-10  8.0000E-10  5.0000E-10   0.000       0.000    
   3    0.000      5.0000E-10  1.0000E-10  1.0000E-10  8.0000E-10  8.0000E-10  5.0000E-10  5.0000E-10   0.000       0.000    
   4   8.0000E-10  5.0000E-10  1.0000E-10  1.0000E-10  1.0000E-10  1.0000E-10  1.0000E-10  1.0000E-10  2.0000E-10   0.000    
   5   8.0000E-10  5.0000E-10  1.0000E-10  1.0000E-10  1.0000E-10  1.0000E-10  1.0000E-10  1.0000E-10  1.0000E-10  1.0000E-10
   6   8.0000E-10  5.0000E-10  5.0000E-10  2.0000E-10  2.0000E-10  1.0000E-10  1.0000E-10  1.0000E-10  1.0000E-10  5.0000E-10
   7   8.0000E-10  5.0000E-10  5.0000E-10  2.0000E-10  2.0000E-10  1.0000E-10  1.0000E-10  2.0000E-10  2.0000E-10   0.000    
   8    0.000      5.0000E-10  5.0000E-10  2.0000E-10  2.0000E-10  1.0000E-10  1.0000E-10  2.0000E-10  5.0000E-10   0.000    
   9    0.000      5.0000E-10  5.0000E-10  2.0000E-10  2.0000E-10  1.0000E-10  1.0000E-10  2.0000E-10  5.0000E-10   0.000    
  10    0.000      5.0000E-10  5.0000E-10  2.0000E-10  2.0000E-10  1.0000E-10  1.0000E-10  2.0000E-10  5.0000E-10  8.0000E-10
  11    0.000      1.0000E-10  1.0000E-10  1.0000E-10  1.0000E-10  1.0000E-10  1.0000E-10  2.0000E-10  5.0000E-10   0.000    
  12   1.0000E-10  1.0000E-10  1.0000E-10  1.0000E-10  1.0000E-10  1.0000E-10  1.0000E-10  1.0000E-10  2.0000E-10   0.000    
  13   1.0000E-10  1.0000E-10  2.0000E-10  2.0000E-10  2.0000E-10  2.0000E-10  2.0000E-10  1.0000E-10  1.0000E-10   0.000    
  14    0.000      2.0000E-10  5.0000E-10  5.0000E-10  5.0000E-10  5.0000E-10  5.0000E-10  2.0000E-10  1.0000E-10   0.000    
  15    0.000       0.000      8.0000E-10  8.0000E-10  8.0000E-10  8.0000E-10   0.000       0.000       0.000       0.000    

                  ET RATE =  5.000000E-10

 USING ET EXTINCTION DEPTH FROM PREVIOUS STRESS PERIOD. CURRENT PERIOD IS:       4

 USING EXTINCTION WATER CONTENT FROM PREVIOUS STRESS PERIOD. CURRENT PERIOD IS:       4

 USING AIR ENTRY PRESSURE FROM PREVIOUS STRESS PERIOD. CURRENT PERIOD IS:       4

 USING ROOT PRESSURE HEAD FROM PREVIOUS STRESS PERIOD. CURRENT PERIOD IS:       4

 USING ROOT ACTIVITY FROM PREVIOUS STRESS PERIOD. CURRENT PERIOD IS:       4

 PROCESSING AG STRESS PERIOD DATA

 READING AG STRESS PERIOD DATA

 READING IRRIGATION SEGMENT

 READING IRRIGATION WELL

 READING SUPPLEMENTAL WELL

 END PROCESSING AG STRESS PERIOD DATA OPTIONS
 
 SOLVING FOR HEAD 
                                                   Max.-Head-Change                         Max.-Flux-Residual
  Residual-Control   Outer-Iter.   Inner-Iter.     Column Row Layer    Maximum-Head-Change  Column Row Layer    Maximum-Flux-Residual          L2-NORM 
          0                 1           2             2   13     1       0.9722706591E-02       4   13    1         0.5574255494E+00      0.1192908535E+01
          0                 2           2             4   13     1      -0.9333061353E-03       4   13    1        -0.5513982280E-01      0.1166980764E+00
          0                 3           1             4   13     1       0.6258911565E-04       4   13    1         0.3801787017E-02      0.7929388182E-02

    ------------------------------------------------
       NWT REQUIRED            3 OUTER ITERATIONS 
       AND A TOTAL OF          5 INNER ITERATIONS.
    ------------------------------------------------

 NO OUTPUT CONTROL FOR STRESS PERIOD    4   TIME STEP    1
 
 SOLVING FOR HEAD 
                                                   Max.-Head-Change                         Max.-Flux-Residual
  Residual-Control   Outer-Iter.   Inner-Iter.     Column Row Layer    Maximum-Head-Change  Column Row Layer    Maximum-Flux-Residual          L2-NORM 
          0                 1           2             2   13     1       0.8971061845E-02       2   13    1         0.5067236770E+00      0.1125586528E+01
          0                 2           2             4   13     1      -0.8448244803E-03       4   13    1        -0.4987501123E-01      0.1102710026E+00
          0                 3           1             4   13     1       0.5665902957E-04       4   13    1         0.3438980787E-02      0.7503697694E-02

    ------------------------------------------------
       NWT REQUIRED            3 OUTER ITERATIONS 
       AND A TOTAL OF          5 INNER ITERATIONS.
    ------------------------------------------------

 NO OUTPUT CONTROL FOR STRESS PERIOD    4   TIME STEP    2
 
 SOLVING FOR HEAD 
                                                   Max.-Head-Change                         Max.-Flux-Residual
  Residual-Control   Outer-Iter.   Inner-Iter.     Column Row Layer    Maximum-Head-Change  Column Row Layer    Maximum-Flux-Residual          L2-NORM 
          0                 1           2             2   13     1       0.8278300461E-02       2   13    1         0.4675348665E+00      0.1065423577E+01
          0                 2           2             2   13     1      -0.7684626531E-03       4   13    1        -0.4514450367E-01      0.1044548324E+00
          0                 3           1             4   13     1       0.5130001029E-04       4   13    1         0.3111364638E-02      0.7117577445E-02

    ------------------------------------------------
       NWT REQUIRED            3 OUTER ITERATIONS 
       AND A TOTAL OF          5 INNER ITERATIONS.
    ------------------------------------------------

 NO OUTPUT CONTROL FOR STRESS PERIOD    4   TIME STEP    3
 
 SOLVING FOR HEAD 
                                                   Max.-Head-Change                         Max.-Flux-Residual
  Residual-Control   Outer-Iter.   Inner-Iter.     Column Row Layer    Maximum-Head-Change  Column Row Layer    Maximum-Flux-Residual          L2-NORM 
          0                 1           2             2   13     1       0.7639674698E-02       2   13    1         0.4314096696E+00      0.1011718689E+01
          0                 2           2             2   13     1      -0.7094780376E-03       2   13    1        -0.4118208294E-01      0.9932724014E-01
          0                 3           1             4   13     1       0.4655574285E-04       4   13    1         0.2822035290E-02      0.6780229549E-02

    ------------------------------------------------
       NWT REQUIRED            3 OUTER ITERATIONS 
       AND A TOTAL OF          5 INNER ITERATIONS.
    ------------------------------------------------

 NO OUTPUT CONTROL FOR STRESS PERIOD    4   TIME STEP    4
 
 SOLVING FOR HEAD 
                                                   Max.-Head-Change                         Max.-Flux-Residual
  Residual-Control   Outer-Iter.   Inner-Iter.     Column Row Layer    Maximum-Head-Change  Column Row Layer    Maximum-Flux-Residual          L2-NORM 
          0                 1           2             2   13     1       0.7051134970E-02       2   13    1         0.3981196161E+00      0.9638256189E+00
          0                 2           2             2   13     1      -0.6550642219E-03       2   13    1        -0.3801806407E-01      0.9471600239E-01
          0                 3           1             2    2     1       0.4352505581E-04       4   13    1         0.2555252590E-02      0.6476046340E-02

    ------------------------------------------------
       NWT REQUIRED            3 OUTER ITERATIONS 
       AND A TOTAL OF          5 INNER ITERATIONS.
    ------------------------------------------------

 NO OUTPUT CONTROL FOR STRESS PERIOD    4   TIME STEP    5
 
 SOLVING FOR HEAD 
                                                   Max.-Head-Change                         Max.-Flux-Residual
  Residual-Control   Outer-Iter.   Inner-Iter.     Column Row Layer    Maximum-Head-Change  Column Row Layer    Maximum-Flux-Residual          L2-NORM 
          0                 1           2             2    2     1       0.6530578794E-02       2   13    1         0.3674340446E+00      0.9211195136E+00
          0                 2           2             2    2     1      -0.6352488475E-03       2   13    1        -0.3510025729E-01      0.9062757206E-01
          0                 3           1             2    2     1       0.4325807581E-04       2    2    1         0.2386429274E-02      0.6206163982E-02

    ------------------------------------------------
       NWT REQUIRED            3 OUTER ITERATIONS 
       AND A TOTAL OF          5 INNER ITERATIONS.
    ------------------------------------------------

 NO OUTPUT CONTROL FOR STRESS PERIOD    4   TIME STEP    6
 
 SOLVING FOR HEAD 
                                                   Max.-Head-Change                         Max.-Flux-Residual
  Residual-Control   Outer-Iter.   Inner-Iter.     Column Row Layer    Maximum-Head-Change  Column Row Layer    Maximum-Flux-Residual          L2-NORM 
          0                 1           2             2    2     1       0.6490744694E-02       2   13    1         0.3391565589E+00      0.8830872342E+00
          0                 2           2             2    2     1      -0.6313740483E-03       2    2    1        -0.3388241289E-01      0.8698754178E-01
          0                 3           1             2    2     1       0.4299421683E-04       2    2    1         0.2371768941E-02      0.5966535889E-02

    ------------------------------------------------
       NWT REQUIRED            3 OUTER ITERATIONS 
       AND A TOTAL OF          5 INNER ITERATIONS.
    ------------------------------------------------

 NO OUTPUT CONTROL FOR STRESS PERIOD    4   TIME STEP    7
 
 SOLVING FOR HEAD 
                                                   Max.-Head-Change                         Max.-Flux-Residual
  Residual-Control   Outer-Iter.   Inner-Iter.     Column Row Layer    Maximum-Head-Change  Column Row Layer    Maximum-Flux-Residual          L2-NORM 
          0                 1           2             2    2     1       0.6451547572E-02       2    2    1         0.3367622684E+00      0.8492150641E+00
          0                 2           2             2    2     1      -0.6275612092E-03       2    2    1        -0.3367632998E-01      0.8374820532E-01
          0                 3           1             2    2     1       0.4273457702E-04       2    2    1         0.2357343149E-02      0.5753731505E-02

    ------------------------------------------------
       NWT REQUIRED            3 OUTER ITERATIONS 
       AND A TOTAL OF          5 INNER ITERATIONS.
    ------------------------------------------------

 NO OUTPUT CONTROL FOR STRESS PERIOD    4   TIME STEP    8
 
 SOLVING FOR HEAD 
                                                   Max.-Head-Change                         Max.-Flux-Residual
  Residual-Control   Outer-Iter.   Inner-Iter.     Column Row Layer    Maximum-Head-Change  Column Row Layer    Maximum-Flux-Residual          L2-NORM 
          0                 1           2             2    2     1       0.6412804297E-02       2    2    1         0.3347254048E+00      0.8190625492E+00
          0                 2           2             2    2     1      -0.6237925182E-03       2    2    1        -0.3347264186E-01      0.8086663199E-01
          0                 3           1             2    2     1       0.4247794320E-04       2    2    1         0.2343084980E-02      0.5564618212E-02

    ------------------------------------------------
       NWT REQUIRED            3 OUTER ITERATIONS 
       AND A TOTAL OF          5 INNER ITERATIONS.
    ------------------------------------------------

 NO OUTPUT CONTROL FOR STRESS PERIOD    4   TIME STEP    9
 
 SOLVING FOR HEAD 
                                                   Max.-Head-Change                         Max.-Flux-Residual
  Residual-Control   Outer-Iter.   Inner-Iter.     Column Row Layer    Maximum-Head-Change  Column Row Layer    Maximum-Flux-Residual          L2-NORM 
          0                 1           2             2    2     1       0.6374594176E-02       2    2    1         0.3327166124E+00      0.7921948598E+00
          0                 2           2             2    2     1      -0.6200756891E-03       2    2    1        -0.3327176089E-01      0.7829830130E-01
          0                 3           1             2    2     1       0.4222484078E-04       2    2    1         0.2329023318E-02      0.5395899446E-02

    ------------------------------------------------
       NWT REQUIRED            3 OUTER ITERATIONS 
       AND A TOTAL OF          5 INNER ITERATIONS.
    ------------------------------------------------

 NO OUTPUT CONTROL FOR STRESS PERIOD    4   TIME STEP   10
 
 SOLVING FOR HEAD 
                                                   Max.-Head-Change                         Max.-Flux-Residual
  Residual-Control   Outer-Iter.   Inner-Iter.     Column Row Layer    Maximum-Head-Change  Column Row Layer    Maximum-Flux-Residual          L2-NORM 
          0                 1           2             2    2     1       0.6336821867E-02       2    2    1         0.3307309230E+00      0.7682456956E+00
          0                 2           2             2    2     1      -0.6164014483E-03       2    2    1        -0.3307319026E-01      0.7600930606E-01
          0                 3           1             2    2     1       0.4197463926E-04       2    2    1         0.2315123403E-02      0.5245474927E-02

    ------------------------------------------------
       NWT REQUIRED            3 OUTER ITERATIONS 
       AND A TOTAL OF          5 INNER ITERATIONS.
    ------------------------------------------------

 NO OUTPUT CONTROL FOR STRESS PERIOD    4   TIME STEP   11
 
 SOLVING FOR HEAD 
                                                   Max.-Head-Change                         Max.-Flux-Residual
  Residual-Control   Outer-Iter.   Inner-Iter.     Column Row Layer    Maximum-Head-Change  Column Row Layer    Maximum-Flux-Residual          L2-NORM 
          0                 1           2             2    2     1       0.6299566920E-02       2    2    1         0.3287724739E+00      0.7468807676E+00
          0                 2           2             2    2     1      -0.6127775330E-03       2    2    1        -0.3287734372E-01      0.7396780827E-01
          0                 3           1             2    2     1       0.4172786406E-04       2    2    1         0.2301414147E-02      0.5111291030E-02

    ------------------------------------------------
       NWT REQUIRED            3 OUTER ITERATIONS 
       AND A TOTAL OF          5 INNER ITERATIONS.
    ------------------------------------------------

 NO OUTPUT CONTROL FOR STRESS PERIOD    4   TIME STEP   12
 
 SOLVING FOR HEAD 
                                                   Max.-Head-Change                         Max.-Flux-Residual
  Residual-Control   Outer-Iter.   Inner-Iter.     Column Row Layer    Maximum-Head-Change  Column Row Layer    Maximum-Flux-Residual          L2-NORM 
          0                 1           2             2    2     1       0.6262821188E-02       2    2    1         0.3268408495E+00      0.7278023089E+00
          0                 2           2             2    2     1      -0.6092031506E-03       2    2    1        -0.3268417964E-01      0.7214403746E-01
          0                 3           1             2    2     1       0.4148446241E-04       2    2    1         0.2287892682E-02      0.4991419050E-02

    ------------------------------------------------
       NWT REQUIRED            3 OUTER ITERATIONS 
       AND A TOTAL OF          5 INNER ITERATIONS.
    ------------------------------------------------

 NO OUTPUT CONTROL FOR STRESS PERIOD    4   TIME STEP   13
 
 SOLVING FOR HEAD 
                                                   Max.-Head-Change                         Max.-Flux-Residual
  Residual-Control   Outer-Iter.   Inner-Iter.     Column Row Layer    Maximum-Head-Change  Column Row Layer    Maximum-Flux-Residual          L2-NORM 
          0                 1           2             2    2     1       0.6226576539E-02       2    2    1         0.3249356272E+00      0.7107304552E+00
          0                 2           2             2    2     1      -0.6056775107E-03       2    2    1        -0.3249365586E-01      0.7051180458E-01
          0                 3           1             2    2     1       0.4124437939E-04       2    2    1         0.2274556003E-02      0.4884020470E-02

    ------------------------------------------------
       NWT REQUIRED            3 OUTER ITERATIONS 
       AND A TOTAL OF          5 INNER ITERATIONS.
    ------------------------------------------------

 NO OUTPUT CONTROL FOR STRESS PERIOD    4   TIME STEP   14
 
 SOLVING FOR HEAD 
                                                   Max.-Head-Change                         Max.-Flux-Residual
  Residual-Control   Outer-Iter.   Inner-Iter.     Column Row Layer    Maximum-Head-Change  Column Row Layer    Maximum-Flux-Residual          L2-NORM 
          0                 1           2             2    2     1       0.6190738554E-02       2    2    1         0.3230518444E+00      0.6954327544E+00
          0                 2           2             2    2     1      -0.6021914291E-03       2    2    1        -0.3230527603E-01      0.6904741996E-01
          0                 3           1             2    2     1       0.4100699065E-04       2    2    1         0.2261369448E-02      0.4787166760E-02

    ------------------------------------------------
       NWT REQUIRED            3 OUTER ITERATIONS 
       AND A TOTAL OF          5 INNER ITERATIONS.
    ------------------------------------------------

 NO OUTPUT CONTROL FOR STRESS PERIOD    4   TIME STEP   15
 
 SOLVING FOR HEAD 
                                                   Max.-Head-Change                         Max.-Flux-Residual
  Residual-Control   Outer-Iter.   Inner-Iter.     Column Row Layer    Maximum-Head-Change  Column Row Layer    Maximum-Flux-Residual          L2-NORM 
          0                 1           2             2    2     1       0.6155387396E-02       2    2    1         0.3211936876E+00      0.6816965238E+00
          0                 2           2             2    2     1      -0.5987527019E-03       2    2    1        -0.3211945882E-01      0.6773269871E-01
          0                 3           1             2    2     1       0.4077282588E-04       2    2    1         0.2248362238E-02      0.4701235123E-02

    ------------------------------------------------
       NWT REQUIRED            3 OUTER ITERATIONS 
       AND A TOTAL OF          5 INNER ITERATIONS.
    ------------------------------------------------

 NO OUTPUT CONTROL FOR STRESS PERIOD    4   TIME STEP   16
 
 SOLVING FOR HEAD 
                                                   Max.-Head-Change                         Max.-Flux-Residual
  Residual-Control   Outer-Iter.   Inner-Iter.     Column Row Layer    Maximum-Head-Change  Column Row Layer    Maximum-Flux-Residual          L2-NORM 
          0                 1           2             2    2     1       0.6120514978E-02       2    2    1         0.3193607723E+00      0.6693406811E+00
          0                 2           2             2    2     1      -0.5953605448E-03       2    2    1        -0.3193616583E-01      0.6654869535E-01
          0                 3           1             2    2     1       0.4054183324E-04       2    2    1         0.2235531750E-02      0.4622964601E-02

    ------------------------------------------------
       NWT REQUIRED            3 OUTER ITERATIONS 
       AND A TOTAL OF          5 INNER ITERATIONS.
    ------------------------------------------------

 NO OUTPUT CONTROL FOR STRESS PERIOD    4   TIME STEP   17
 
 SOLVING FOR HEAD 
                                                   Max.-Head-Change                         Max.-Flux-Residual
  Residual-Control   Outer-Iter.   Inner-Iter.     Column Row Layer    Maximum-Head-Change  Column Row Layer    Maximum-Flux-Residual          L2-NORM 
          0                 1           2             2    2     1       0.6086114131E-02       2    2    1         0.3175526791E+00      0.6581834074E+00
          0                 2           2             2    2     1      -0.5920142585E-03       2    2    1        -0.3175535508E-01      0.6547861353E-01
          0                 3           1             2    2     1       0.4031396327E-04       2    2    1         0.2222874988E-02      0.4552374955E-02

    ------------------------------------------------
       NWT REQUIRED            3 OUTER ITERATIONS 
       AND A TOTAL OF          5 INNER ITERATIONS.
    ------------------------------------------------

 NO OUTPUT CONTROL FOR STRESS PERIOD    4   TIME STEP   18
 
 SOLVING FOR HEAD 
                                                   Max.-Head-Change                         Max.-Flux-Residual
  Residual-Control   Outer-Iter.   Inner-Iter.     Column Row Layer    Maximum-Head-Change  Column Row Layer    Maximum-Flux-Residual          L2-NORM 
          0                 1           2             2    2     1       0.6052090883E-02       2    2    1         0.3157644944E+00      0.6480871972E+00
          0                 2           2             2    2     1      -0.5887047028E-03       2    2    1        -0.3157653520E-01      0.6450909565E-01
          0                 3           1             2    2     1       0.4008859493E-04       2    2    1         0.2210357589E-02      0.4488342151E-02

    ------------------------------------------------
       NWT REQUIRED            3 OUTER ITERATIONS 
       AND A TOTAL OF          5 INNER ITERATIONS.
    ------------------------------------------------

 NO OUTPUT CONTROL FOR STRESS PERIOD    4   TIME STEP   19
 
 SOLVING FOR HEAD 
                                                   Max.-Head-Change                         Max.-Flux-Residual
  Residual-Control   Outer-Iter.   Inner-Iter.     Column Row Layer    Maximum-Head-Change  Column Row Layer    Maximum-Flux-Residual          L2-NORM 
          0                 1           2             2    2     1       0.6018525482E-02       2    2    1         0.3140004295E+00      0.6389240942E+00
          0                 2           2             2    2     1      -0.5854396836E-03       2    2    1        -0.3140012732E-01      0.6362714457E-01
          0                 3           1             2    2     1       0.3986625980E-04       2    2    1         0.2198009063E-02      0.4429577986E-02

    ------------------------------------------------
       NWT REQUIRED            3 OUTER ITERATIONS 
       AND A TOTAL OF          5 INNER ITERATIONS.
    ------------------------------------------------

 NO OUTPUT CONTROL FOR STRESS PERIOD    4   TIME STEP   20
 
 SOLVING FOR HEAD 
                                                   Max.-Head-Change                         Max.-Flux-Residual
  Residual-Control   Outer-Iter.   Inner-Iter.     Column Row Layer    Maximum-Head-Change  Column Row Layer    Maximum-Flux-Residual          L2-NORM 
          0                 1           2             2    2     1       0.5985410749E-02       2    2    1         0.3122601035E+00      0.6305800237E+00
          0                 2           2             2    2     1      -0.5822185030E-03       2    2    1        -0.3122609338E-01      0.6282363216E-01
          0                 3           1             2    2     1       0.3964690959E-04       2    2    1         0.2185826703E-02      0.4376402763E-02

    ------------------------------------------------
       NWT REQUIRED            3 OUTER ITERATIONS 
       AND A TOTAL OF          5 INNER ITERATIONS.
    ------------------------------------------------

 NO OUTPUT CONTROL FOR STRESS PERIOD    4   TIME STEP   21
 
 SOLVING FOR HEAD 
                                                   Max.-Head-Change                         Max.-Flux-Residual
  Residual-Control   Outer-Iter.   Inner-Iter.     Column Row Layer    Maximum-Head-Change  Column Row Layer    Maximum-Flux-Residual          L2-NORM 
          0                 1           2             2    2     1       0.5952739973E-02       2    2    1         0.3105431442E+00      0.6229689428E+00
          0                 2           2             2    2     1      -0.5790405076E-03       2    2    1        -0.3105439614E-01      0.6208896390E-01
          0                 3           1             2    2     1       0.3943050005E-04       2    2    1         0.2173807899E-02      0.4326407697E-02

    ------------------------------------------------
       NWT REQUIRED            3 OUTER ITERATIONS 
       AND A TOTAL OF          5 INNER ITERATIONS.
    ------------------------------------------------

 NO OUTPUT CONTROL FOR STRESS PERIOD    4   TIME STEP   22
 
 SOLVING FOR HEAD 
                                                   Max.-Head-Change                         Max.-Flux-Residual
  Residual-Control   Outer-Iter.   Inner-Iter.     Column Row Layer    Maximum-Head-Change  Column Row Layer    Maximum-Flux-Residual          L2-NORM 
          0                 1           2             2    2     1       0.5920419299E-02       2    2    1         0.3088446607E+00      0.6159849811E+00
          0                 2           2             2    2     1      -0.5758965676E-03       2    2    1        -0.3088454650E-01      0.6141536588E-01
          0                 3           1             2    2     1       0.3921640919E-04       2    2    1         0.2161918418E-02      0.4282366592E-02

    ------------------------------------------------
       NWT REQUIRED            3 OUTER ITERATIONS 
       AND A TOTAL OF          5 INNER ITERATIONS.
    ------------------------------------------------

 NO OUTPUT CONTROL FOR STRESS PERIOD    4   TIME STEP   23
 
 SOLVING FOR HEAD 
                                                   Max.-Head-Change                         Max.-Flux-Residual
  Residual-Control   Outer-Iter.   Inner-Iter.     Column Row Layer    Maximum-Head-Change  Column Row Layer    Maximum-Flux-Residual          L2-NORM 
          0                 1           2             2    2     1       0.5888529809E-02       2    2    1         0.3071688723E+00      0.6095689376E+00
          0                 2           2             2    2     1      -0.5727945709E-03       2    2    1        -0.3071696638E-01      0.6079455114E-01
          0                 3           1             2    2     1       0.3900517546E-04       2    2    1         0.2150187841E-02      0.4240600404E-02

    ------------------------------------------------
       NWT REQUIRED            3 OUTER ITERATIONS 
       AND A TOTAL OF          5 INNER ITERATIONS.
    ------------------------------------------------

 NO OUTPUT CONTROL FOR STRESS PERIOD    4   TIME STEP   24
 
 SOLVING FOR HEAD 
                                                   Max.-Head-Change                         Max.-Flux-Residual
  Residual-Control   Outer-Iter.   Inner-Iter.     Column Row Layer    Maximum-Head-Change  Column Row Layer    Maximum-Flux-Residual          L2-NORM 
          0                 1           2             2    2     1       0.5857064406E-02       2    2    1         0.3055154403E+00      0.6036483312E+00
          0                 2           2             2    2     1      -0.5697338265E-03       2    2    1        -0.3055162196E-01      0.6022065514E-01
          0                 3           1             2    2     1       0.3879674985E-04       2    2    1         0.2138613727E-02      0.4202236599E-02

    ------------------------------------------------
       NWT REQUIRED            3 OUTER ITERATIONS 
       AND A TOTAL OF          5 INNER ITERATIONS.
    ------------------------------------------------

 NO OUTPUT CONTROL FOR STRESS PERIOD    4   TIME STEP   25
 
 SOLVING FOR HEAD 
                                                   Max.-Head-Change                         Max.-Flux-Residual
  Residual-Control   Outer-Iter.   Inner-Iter.     Column Row Layer    Maximum-Head-Change  Column Row Layer    Maximum-Flux-Residual          L2-NORM 
          0                 1           2             2    2     1       0.5826016811E-02       2    2    1         0.3038839966E+00      0.5981780172E+00
          0                 2           2             2    2     1      -0.5667137235E-03       2    2    1        -0.3038847637E-01      0.5968992671E-01
          0                 3           1             2    2     1       0.3859109214E-04       2    2    1         0.2127193536E-02      0.4166718241E-02

    ------------------------------------------------
       NWT REQUIRED            3 OUTER ITERATIONS 
       AND A TOTAL OF          5 INNER ITERATIONS.
    ------------------------------------------------

 NO OUTPUT CONTROL FOR STRESS PERIOD    4   TIME STEP   26
 
 SOLVING FOR HEAD 
                                                   Max.-Head-Change                         Max.-Flux-Residual
  Residual-Control   Outer-Iter.   Inner-Iter.     Column Row Layer    Maximum-Head-Change  Column Row Layer    Maximum-Flux-Residual          L2-NORM 
          0                 1           2             2    2     1       0.5795293960E-02       2    2    1         0.3022696725E+00      0.5930866872E+00
          0                 2           2             2    2     1      -0.5637252105E-03       2    2    1        -0.3022704280E-01      0.5919484204E-01
          0                 3           1             2    2     1       0.3838758578E-04       2    2    1         0.2115893185E-02      0.4133396156E-02

    ------------------------------------------------
       NWT REQUIRED            3 OUTER ITERATIONS 
       AND A TOTAL OF          5 INNER ITERATIONS.
    ------------------------------------------------

 NO OUTPUT CONTROL FOR STRESS PERIOD    4   TIME STEP   27
 
 SOLVING FOR HEAD 
                                                   Max.-Head-Change                         Max.-Flux-Residual
  Residual-Control   Outer-Iter.   Inner-Iter.     Column Row Layer    Maximum-Head-Change  Column Row Layer    Maximum-Flux-Residual          L2-NORM 
          0                 1           2             2    2     1       0.5764977044E-02       2    2    1         0.3006767291E+00      0.5883461591E+00
          0                 2           2             2    2     1      -0.5607761839E-03       2    2    1        -0.3006774729E-01      0.5873281583E-01
          0                 3           1             2    2     1       0.3818676875E-04       2    2    1         0.2104742531E-02      0.4101958269E-02

    ------------------------------------------------
       NWT REQUIRED            3 OUTER ITERATIONS 
       AND A TOTAL OF          5 INNER ITERATIONS.
    ------------------------------------------------

 NO OUTPUT CONTROL FOR STRESS PERIOD    4   TIME STEP   28
 
 SOLVING FOR HEAD 
                                                   Max.-Head-Change                         Max.-Flux-Residual
  Residual-Control   Outer-Iter.   Inner-Iter.     Column Row Layer    Maximum-Head-Change  Column Row Layer    Maximum-Flux-Residual          L2-NORM 
          0                 1           2             2    2     1       0.5735060105E-02       2    2    1         0.2991048331E+00      0.5839165056E+00
          0                 2           2             2    2     1      -0.5578660642E-03       2    2    1        -0.2991055658E-01      0.5830111832E-01
          0                 3           1             2    2     1       0.3798859962E-04       2    2    1         0.2093739157E-02      0.4072782094E-02

    ------------------------------------------------
       NWT REQUIRED            3 OUTER ITERATIONS 
       AND A TOTAL OF          5 INNER ITERATIONS.
    ------------------------------------------------

 NO OUTPUT CONTROL FOR STRESS PERIOD    4   TIME STEP   29
 
 SOLVING FOR HEAD 
                                                   Max.-Head-Change                         Max.-Flux-Residual
  Residual-Control   Outer-Iter.   Inner-Iter.     Column Row Layer    Maximum-Head-Change  Column Row Layer    Maximum-Flux-Residual          L2-NORM 
          0                 1           2             2    2     1       0.4577995966E-02       2    2    1         0.2386111534E+00      0.5559196019E+00
          0                 2           2             2    2     1      -0.4453148114E-03       2    2    1        -0.2386115789E-01      0.5518052966E-01
          0                 3           1             2    2     1       0.3032428173E-04       2    2    1         0.1670281384E-02      0.3825101023E-02

    ------------------------------------------------
       NWT REQUIRED            3 OUTER ITERATIONS 
       AND A TOTAL OF          5 INNER ITERATIONS.
    ------------------------------------------------

 NO OUTPUT CONTROL FOR STRESS PERIOD    4   TIME STEP   30



 STREAM LISTING     PERIOD      4   STEP       30

 LAYER ROW COL. STREAM  RCH.  FLOW INTO     FLOW TO   FLOW OUT OF   OVRLND.     DIRECT     STREAM       STREAM     STREAM     STREAM   STREAMBED  STREAMBED
                SEG.NO.  NO.  STRM. RCH.    AQUIFER    STRM. RCH.    RUNOFF     PRECIP       ET          HEAD       DEPTH      WIDTH   CONDCTNC.   GRADIENT

   1    1    1     1     1    4.6685E+01  3.2585E-01   4.6359E+01  0.000E+00  0.000E+00  0.000E+00  1.09443E+03  1.378E+00  1.654E+01  7.443E-02  1.459E+00
   1    2    2     1     2    4.6359E+01  5.0484E-01   4.5855E+01  0.000E+00  0.000E+00  0.000E+00  1.08943E+03  1.375E+00  1.648E+01  1.154E-01  1.458E+00
   1    3    3     1     3    4.5855E+01  4.3074E-01   4.5424E+01  0.000E+00  0.000E+00  0.000E+00  1.08379E+03  1.372E+00  1.642E+01  9.852E-02  1.457E+00
   1    3    4     1     4    4.5424E+01  3.9680E-01   4.5027E+01  0.000E+00  0.000E+00  0.000E+00  1.07878E+03  1.369E+00  1.636E+01  9.082E-02  1.456E+00
   1    4    5     2     1    4.3027E+01  3.6413E-01   4.2663E+01  0.000E+00  0.000E+00  0.000E+00  1.07360E+03  1.668E+00  1.200E+01  7.800E-02  1.556E+00
   1    5    6     2     2    4.2663E+01  2.7965E-01   4.2383E+01  0.000E+00  0.000E+00  0.000E+00  1.06817E+03  1.661E+00  1.200E+01  6.000E-02  1.554E+00
   1    6    6     2     3    4.2383E+01  2.7926E-01   4.2104E+01  0.000E+00  0.000E+00  0.000E+00  1.06345E+03  1.654E+00  1.200E+01  6.000E-02  1.551E+00
   1    7    6     2     4    4.2104E+01  2.7886E-01   4.1825E+01  0.000E+00  0.000E+00  0.000E+00  1.05872E+03  1.648E+00  1.200E+01  6.000E-02  1.549E+00
   1    8    6     2     5    4.1825E+01  2.7847E-01   4.1547E+01  0.000E+00  0.000E+00  0.000E+00  1.05400E+03  1.641E+00  1.200E+01  6.000E-02  1.547E+00
   1    3    5     3     1    2.0000E+00  2.8252E-01   1.7175E+00  0.000E+00  0.000E+00  0.000E+00  1.07555E+03  1.909E+00  9.636E+00  7.227E-02  1.955E+00
   1    3    6     3     2    1.7175E+00  2.4905E-01   1.4684E+00  0.000E+00  0.000E+00  0.000E+00  1.07264E+03  1.727E+00  8.909E+00  6.682E-02  1.864E+00
   1    3    7     3     3    1.4684E+00  1.9718E-01   1.2712E+00  0.000E+00  0.000E+00  0.000E+00  1.06987E+03  1.555E+00  8.218E+00  5.547E-02  1.777E+00
   1    4    8     3     4    1.2712E+00  2.2567E-01   1.0456E+00  0.000E+00  0.000E+00  0.000E+00  1.06682E+03  1.364E+00  7.455E+00  6.709E-02  1.682E+00
   1    5    8     3     5    1.0456E+00  1.5790E-01   8.8768E-01  0.000E+00  0.000E+00  0.000E+00  1.06362E+03  1.164E+00  6.655E+00  4.991E-02  1.582E+00
   1    6    8     3     6    8.8768E-01  5.5980E-02   8.3170E-01  0.000E+00  0.000E+00  0.000E+00  1.06158E+03  1.036E+00  6.145E+00  1.844E-02  1.518E+00
   1    5   10     4     1    1.0000E+01  9.0919E-02   9.9091E+00  0.000E+00  0.000E+00  0.000E+00  1.07836E+03  6.368E-01  1.000E+01  2.500E-02  1.212E+00
   1    5    9     4     2    9.9091E+00  1.8158E-01   9.7275E+00  0.000E+00  0.000E+00  0.000E+00  1.07154E+03  6.315E-01  1.000E+01  5.000E-02  1.211E+00
   1    6    8     4     3    9.7275E+00  1.2689E-01   9.6006E+00  0.000E+00  0.000E+00  0.000E+00  1.06381E+03  6.256E-01  1.000E+01  3.500E-02  1.209E+00
   1    6    8     5     1    1.0432E+01  2.2686E-01   1.0205E+01  0.000E+00  0.000E+00  0.000E+00  1.05868E+03  6.790E-01  1.542E+01  6.166E-02  1.226E+00
   1    7    7     5     2    1.0205E+01  2.7894E-01   9.9265E+00  0.000E+00  0.000E+00  0.000E+00  1.05417E+03  6.732E-01  1.519E+01  7.594E-02  1.224E+00
   1    8    7     5     3    9.9265E+00  1.9221E-01   9.7343E+00  0.000E+00  0.000E+00  0.000E+00  1.04992E+03  6.676E-01  1.497E+01  5.241E-02  1.223E+00
   1    8    6     5     4    9.7343E+00  1.3577E-01   9.5985E+00  0.000E+00  0.000E+00  0.000E+00  1.04691E+03  6.637E-01  1.482E+01  3.706E-02  1.221E+00
   1    9    6     6     1    5.1145E+01  2.9237E-01   5.0853E+01  0.000E+00  0.000E+00  0.000E+00  1.04460E+03  1.873E+00  1.200E+01  6.000E-02  1.624E+00
   1   10    7     6     2    5.0853E+01  2.9199E-01   5.0561E+01  0.000E+00  0.000E+00  0.000E+00  1.04005E+03  1.866E+00  1.200E+01  6.000E-02  1.622E+00
   1   11    7     6     3    5.0561E+01  2.9160E-01   5.0269E+01  0.000E+00  0.000E+00  0.000E+00  1.03550E+03  1.860E+00  1.200E+01  6.000E-02  1.620E+00
   1   12    7     6     4    5.0269E+01  2.9121E-01   4.9978E+01  0.000E+00  0.000E+00  0.000E+00  1.03094E+03  1.854E+00  1.200E+01  6.000E-02  1.618E+00
   1   13    7     6     5    4.9978E+01  1.5046E-02   4.9963E+01  0.000E+00  0.000E+00  0.000E+00  1.02776E+03  1.850E+00  1.200E+01  2.400E-02  2.090E-01
   1   14    9     7     1    1.5000E+02  1.3355E+00   1.4866E+02  0.000E+00  0.000E+00  0.000E+00  1.03987E+03  2.288E+00  5.529E+01  5.593E-01  7.959E-01
   1   13    8     7     2    1.4866E+02  1.8270E+00   1.4684E+02  0.000E+00  0.000E+00  0.000E+00  1.03478E+03  2.279E+00  5.526E+01  6.148E-01  9.906E-01
   1   13    7     7     3    1.4684E+02  1.4284E+00   1.4541E+02  0.000E+00  0.000E+00  0.000E+00  1.02969E+03  2.271E+00  5.522E+01  5.585E-01  8.526E-01
   1   13    6     8     1    1.9537E+02  9.7131E-01   1.9440E+02  0.000E+00  0.000E+00  0.000E+00  1.02498E+03  3.107E+00  4.506E+01  4.591E-01  7.052E-01
   1   13    5     8     2    1.9440E+02  1.7796E-01   1.9422E+02  0.000E+00  0.000E+00  0.000E+00  1.01873E+03  3.104E+00  4.501E+01  4.586E-01  1.293E-01
   1   13    4     8     3    1.9422E+02 -2.6466E+00   1.9687E+02  0.000E+00  0.000E+00  0.000E+00  1.01249E+03  3.111E+00  4.511E+01  4.597E+00 -1.919E-01
   1   13    3     8     4    1.9687E+02 -3.8111E+00   2.0068E+02  0.000E+00  0.000E+00  0.000E+00  1.00626E+03  3.130E+00  4.539E+01  4.626E+00 -2.746E-01
   1   13    2     8     5    2.0068E+02 -2.7018E+00   2.0338E+02  0.000E+00  0.000E+00  0.000E+00  1.00002E+03  3.150E+00  4.567E+01  4.654E+00 -1.935E-01
   1   13    1     8     6    2.0338E+02 -2.0096E+00   2.0539E+02  0.000E+00  0.000E+00  0.000E+00  9.95038E+02  3.163E+00  4.587E+01  2.805E+00 -2.388E-01
   1    8    6     9     1    0.0000E+00  0.0000E+00   0.0000E+00  0.000E+00  0.000E+00  0.000E+00  1.07875E+03  0.000E+00  4.000E+00  0.000E+00  1.000E+00
   1    8    5     9     2    0.0000E+00  0.0000E+00   0.0000E+00  0.000E+00  0.000E+00  0.000E+00  1.07825E+03  0.000E+00  4.000E+00  0.000E+00  1.000E+00





UNSATURATED ZONE PACKAGE VOLUMETRIC BUDGET FOR  TIME STEP    30 STRESS PERIOD    4
  ------------------------------------------------------------------------------



     CUMULATIVE VOLUMES      L**3       RATES FOR THIS TIME STEP      L**3/T
     ------------------                 ------------------------

           IN:                                      IN:
           ---                                      ---
        INFILTRATION =     6759998.6182          INFILTRATION =           0.8475

          OUT:                                     OUT:
          ----                                     ----
              UZF ET =     5917485.4539                UZF ET =           0.7500
        UZF RECHARGE =       73224.0000          UZF RECHARGE =       0.0000E+00

            IN - OUT =      769289.1644              IN - OUT =       9.7500E-02

          STORAGE:                                 STORAGE:
          --------                                 --------
      STORAGE CHANGE =      769289.2225        STORAGE CHANGE =       9.7500E-02

 PERCENT DISCREPANCY IS DIFFERENCE BETWEEN IN-OUT MINUS CHANGE IN STORAGE
 DIVIDED BY THE AVERAGE OF IN AND OUT TIMES 100

 PERCENT DISCREPANCY =           0.00     PERCENT DISCREPANCY =           0.00






1
  VOLUMETRIC BUDGET FOR AGRICULTURAL FIELDS AT  END OF TIME STEP   30, STRESS PERIOD   4
  ------------------------------------------------------------------------------

     CUMULATIVE VOLUMES      L**3       RATES FOR THIS TIME STEP      L**3/T
     ------------------                 ------------------------

           IN:                                      IN:
           ---                                      ---
           AG WELLS      =           0.0000             AG WELLS      =           0.0000
      DIVERSION SEGMENTS =           0.0000        DIVERSION SEGMENTS =           0.0000
           GW IRRIGATION =           0.0000             GW IRRIGATION =           0.0000
           SW IRRIGATION =           0.0000             SW IRRIGATION =           0.0000
        SYSTEM LOSSES GW =           0.0000          SYSTEM LOSSES GW =           0.0000
        SYSTEM LOSSES SW =           0.0000          SYSTEM LOSSES SW =           0.0000

                TOTAL IN =           0.0000                  TOTAL IN =           0.0000

          OUT:                                     OUT:
          ----                                     ----
           AG WELLS      =           0.0000             AG WELLS      =           0.0000
      DIVERSION SEGMENTS =           0.0000        DIVERSION SEGMENTS =           0.0000
           GW IRRIGATION =           0.0000             GW IRRIGATION =           0.0000
           SW IRRIGATION =           0.0000             SW IRRIGATION =           0.0000
        SYSTEM LOSSES GW =           0.0000          SYSTEM LOSSES GW =           0.0000
        SYSTEM LOSSES SW =           0.0000          SYSTEM LOSSES SW =           0.0000

               TOTAL OUT =           0.0000                 TOTAL OUT =           0.0000

                IN - OUT =           0.0000                  IN - OUT =           0.0000

     PERCENT DISCREPANCY =           0.00         PERCENT DISCREPANCY =           0.00



1
  VOLUMETRIC BUDGET FOR ENTIRE MODEL AT END OF TIME STEP   30, STRESS PERIOD   4
  ------------------------------------------------------------------------------

     CUMULATIVE VOLUMES      L**3       RATES FOR THIS TIME STEP      L**3/T
     ------------------                 ------------------------

           IN:                                      IN:
           ---                                      ---
             STORAGE     =     4352803.5000               STORAGE     =           0.9339
       CONSTANT HEAD     =           0.0000         CONSTANT HEAD     =           0.0000
     HEAD DEP BOUNDS     =     2278729.0000       HEAD DEP BOUNDS     =           0.2857
      STREAM LEAKAGE     =    95891936.0000        STREAM LEAKAGE     =          12.4623
        UZF RECHARGE     =       73223.9531          UZF RECHARGE     =           0.0000
               GW ET     =           0.0000                 GW ET     =           0.0000
     SURFACE LEAKAGE     =           0.0000       SURFACE LEAKAGE     =           0.0000
           AG WELLS      =           0.0000             AG WELLS      =           0.0000

                TOTAL IN =   102596696.0000                  TOTAL IN =          13.6819

          OUT:                                     OUT:
          ----                                     ----
             STORAGE     =    18028010.0000               STORAGE     =           2.2164
       CONSTANT HEAD     =           0.0000         CONSTANT HEAD     =           0.0000
     HEAD DEP BOUNDS     =     2316606.7500       HEAD DEP BOUNDS     =           0.2947
      STREAM LEAKAGE     =    82252224.0000        STREAM LEAKAGE     =          11.1691
        UZF RECHARGE     =           0.0000          UZF RECHARGE     =           0.0000
               GW ET     =        3763.8860                 GW ET     =       2.1214E-03
     SURFACE LEAKAGE     =           0.0000       SURFACE LEAKAGE     =           0.0000
           AG WELLS      =           0.0000             AG WELLS      =           0.0000

               TOTAL OUT =   102600600.0000                 TOTAL OUT =          13.6823

                IN - OUT =       -3904.0000                  IN - OUT =      -3.6430E-04

     PERCENT DISCREPANCY =          -0.00         PERCENT DISCREPANCY =          -0.00






         TIME SUMMARY AT END OF TIME STEP   30 IN STRESS PERIOD    4
                    SECONDS     MINUTES      HOURS       DAYS        YEARS
                    -----------------------------------------------------------
   TIME STEP LENGTH  87667.      1461.1      24.352      1.0147     2.77799E-03
 STRESS PERIOD TIME 2.63000E+06  43833.      730.56      30.440     8.33397E-02
         TOTAL TIME 7.97639E+06 1.32940E+05  2215.7      92.319     0.25276    
1
1
                            STRESS PERIOD NO.    5, LENGTH =   2630000.    
                            -----------------------------------------------

                              NUMBER OF TIME STEPS =    30

                               MULTIPLIER FOR DELT =     1.000

                            INITIAL TIME STEP SIZE =   87666.66    

 REUSING NON-PARAMETER GHB CELLS FROM LAST STRESS PERIOD

      2 GHB CELLS

 REUSING STREAM SEGMENT DATA FROM LAST STRESS PERIOD



            AREAL INFILTRATION RATE
 READING ON UNIT   19 WITH FORMAT: (FREE)              

            1           2           3           4           5           6           7           8           9          10
 ........................................................................................................................
   1   1.0000E-10  2.0000E-10   0.000       0.000       0.000       0.000       0.000       0.000       0.000       0.000    
   2   2.0000E-10  1.0000E-10  2.0000E-10   0.000       0.000      8.0000E-10  8.0000E-10  5.0000E-10   0.000       0.000    
   3    0.000      5.0000E-10  1.0000E-10  1.0000E-10  8.0000E-10  8.0000E-10  5.0000E-10  5.0000E-10   0.000       0.000    
   4   8.0000E-10  5.0000E-10  1.0000E-10  1.0000E-10  1.0000E-10  1.0000E-10  1.0000E-10  1.0000E-10  2.0000E-10   0.000    
   5   8.0000E-10  5.0000E-10  1.0000E-10  1.0000E-10  1.0000E-10  1.0000E-10  1.0000E-10  1.0000E-10  1.0000E-10  1.0000E-10
   6   8.0000E-10  5.0000E-10  5.0000E-10  2.0000E-10  2.0000E-10  1.0000E-10  1.0000E-10  1.0000E-10  1.0000E-10  5.0000E-10
   7   8.0000E-10  5.0000E-10  5.0000E-10  2.0000E-10  2.0000E-10  1.0000E-10  1.0000E-10  2.0000E-10  2.0000E-10   0.000    
   8    0.000      5.0000E-10  5.0000E-10  2.0000E-10  2.0000E-10  1.0000E-10  1.0000E-10  2.0000E-10  5.0000E-10   0.000    
   9    0.000      5.0000E-10  5.0000E-10  2.0000E-10  2.0000E-10  1.0000E-10  1.0000E-10  2.0000E-10  5.0000E-10   0.000    
  10    0.000      5.0000E-10  5.0000E-10  2.0000E-10  2.0000E-10  1.0000E-10  1.0000E-10  2.0000E-10  5.0000E-10  8.0000E-10
  11    0.000      1.0000E-10  1.0000E-10  1.0000E-10  1.0000E-10  1.0000E-10  1.0000E-10  2.0000E-10  5.0000E-10   0.000    
  12   1.0000E-10  1.0000E-10  1.0000E-10  1.0000E-10  1.0000E-10  1.0000E-10  1.0000E-10  1.0000E-10  2.0000E-10   0.000    
  13   1.0000E-10  1.0000E-10  2.0000E-10  2.0000E-10  2.0000E-10  2.0000E-10  2.0000E-10  1.0000E-10  1.0000E-10   0.000    
  14    0.000      2.0000E-10  5.0000E-10  5.0000E-10  5.0000E-10  5.0000E-10  5.0000E-10  2.0000E-10  1.0000E-10   0.000    
  15    0.000       0.000      8.0000E-10  8.0000E-10  8.0000E-10  8.0000E-10   0.000       0.000       0.000       0.000    

                  ET RATE =  2.500000E-08

 USING ET EXTINCTION DEPTH FROM PREVIOUS STRESS PERIOD. CURRENT PERIOD IS:       5

 USING EXTINCTION WATER CONTENT FROM PREVIOUS STRESS PERIOD. CURRENT PERIOD IS:       5

 USING AIR ENTRY PRESSURE FROM PREVIOUS STRESS PERIOD. CURRENT PERIOD IS:       5

 USING ROOT PRESSURE HEAD FROM PREVIOUS STRESS PERIOD. CURRENT PERIOD IS:       5

 USING ROOT ACTIVITY FROM PREVIOUS STRESS PERIOD. CURRENT PERIOD IS:       5

 PROCESSING AG STRESS PERIOD DATA

 READING AG STRESS PERIOD DATA

 READING IRRIGATION SEGMENT

 READING IRRIGATION WELL

 READING SUPPLEMENTAL WELL

 END PROCESSING AG STRESS PERIOD DATA OPTIONS
 
 SOLVING FOR HEAD 
                                                   Max.-Head-Change                         Max.-Flux-Residual
  Residual-Control   Outer-Iter.   Inner-Iter.     Column Row Layer    Maximum-Head-Change  Column Row Layer    Maximum-Flux-Residual          L2-NORM 
          0                 1           2             4   13     1      -0.1463770062E-01       4   13    1        -0.8564697214E+00      0.1451257607E+01
          0                 2           2             4    7     1      -0.1442992414E+01       5    6    1        -0.7750217164E+02      0.1898387750E+03
          0                 3           2             4    7     1       0.1362946229E+00       5    8    1         0.7567663712E+01      0.1847531489E+02
          0                 4           2             4    7     1      -0.6791342352E-01       5    6    1        -0.3853509035E+01      0.9436516172E+01
          0                 5           2             5    8     1       0.8613875206E-03       5    8    1         0.5161905923E-01      0.1208036909E+00
          0                 6           1             5    8     1       0.1266862140E-04       5    8    1         0.7593168743E-03      0.1778372063E-02

    ------------------------------------------------
       NWT REQUIRED            6 OUTER ITERATIONS 
       AND A TOTAL OF         11 INNER ITERATIONS.
    ------------------------------------------------

 NO OUTPUT CONTROL FOR STRESS PERIOD    5   TIME STEP    1
 
 SOLVING FOR HEAD 
                                                   Max.-Head-Change                         Max.-Flux-Residual
  Residual-Control   Outer-Iter.   Inner-Iter.     Column Row Layer    Maximum-Head-Change  Column Row Layer    Maximum-Flux-Residual          L2-NORM 
          0                 1           2             5    8     1       0.4181673539E-01       5    8    1         0.2306798002E+01      0.5097288990E+01
          0                 2           2             5    8     1      -0.8728315416E-01       5    8    1        -0.4808669894E+01      0.1159569397E+02
          0                 3           2             4    7     1       0.5598529327E-01       5    8    1         0.3106539587E+01      0.7587940961E+01
          0                 4           2             4    7     1      -0.8296259151E-01       5    8    1        -0.4705980964E+01      0.1152636508E+02
          0                 5           2             4    7     1       0.1022920431E-02       4    7    1         0.5962296148E-01      0.1460742185E+00
          0                 6           1             4    7     1       0.1504432224E-04       5    8    1         0.8786736942E-03      0.2154381649E-02

    ------------------------------------------------
       NWT REQUIRED            6 OUTER ITERATIONS 
       AND A TOTAL OF         11 INNER ITERATIONS.
    ------------------------------------------------

 OUTPUT CONTROL FOR STRESS PERIOD    5   TIME STEP    2
    PRINT BUDGET
    SAVE BUDGET
 UBDSV1 SAVING "         STORAGE" ON UNIT 102 AT TIME STEP  2, STRESS PERIOD   5
 UBDSV2 SAVING "   CONSTANT HEAD" ON UNIT 102 AT TIME STEP  2, STRESS PERIOD   5
 UBDSV1 SAVING "FLOW RIGHT FACE " ON UNIT 102 AT TIME STEP  2, STRESS PERIOD   5
 UBDSV1 SAVING "FLOW FRONT FACE " ON UNIT 102 AT TIME STEP  2, STRESS PERIOD   5

  HEAD DEP BOUNDS   PERIOD    5   STEP     2
 BOUNDARY      1   LAYER   1   ROW    13   COL     1   RATE   -0.294058    
 BOUNDARY      2   LAYER   1   ROW    14   COL     9   RATE    0.285737    



 STREAM LISTING     PERIOD      5   STEP        2

 LAYER ROW COL. STREAM  RCH.  FLOW INTO     FLOW TO   FLOW OUT OF   OVRLND.     DIRECT     STREAM       STREAM     STREAM     STREAM   STREAMBED  STREAMBED
                SEG.NO.  NO.  STRM. RCH.    AQUIFER    STRM. RCH.    RUNOFF     PRECIP       ET          HEAD       DEPTH      WIDTH   CONDCTNC.   GRADIENT

   1    1    1     1     1    2.1000E+01  2.2591E-01   2.0774E+01  0.000E+00  0.000E+00  0.000E+00  1.09416E+03  1.115E+00  1.220E+01  5.490E-02  1.372E+00
   1    2    2     1     2    2.0774E+01  3.4916E-01   2.0425E+01  0.000E+00  0.000E+00  0.000E+00  1.08917E+03  1.110E+00  1.214E+01  8.495E-02  1.370E+00
   1    3    3     1     3    2.0425E+01  2.9709E-01   2.0128E+01  0.000E+00  0.000E+00  0.000E+00  1.08352E+03  1.105E+00  1.206E+01  7.238E-02  1.368E+00
   1    3    4     1     4    2.0128E+01  2.7299E-01   1.9855E+01  0.000E+00  0.000E+00  0.000E+00  1.07851E+03  1.100E+00  1.200E+01  6.659E-02  1.367E+00
   1    4    5     2     1    1.7855E+01  3.1056E-01   1.7544E+01  0.000E+00  0.000E+00  0.000E+00  1.07292E+03  9.816E-01  1.200E+01  7.800E-02  1.327E+00
   1    5    6     2     2    1.7544E+01  2.3834E-01   1.7306E+01  0.000E+00  0.000E+00  0.000E+00  1.06748E+03  9.724E-01  1.200E+01  6.000E-02  1.324E+00
   1    6    6     2     3    1.7306E+01  2.3786E-01   1.7068E+01  0.000E+00  0.000E+00  0.000E+00  1.06276E+03  9.644E-01  1.200E+01  6.000E-02  1.321E+00
   1    7    6     2     4    1.7068E+01  2.3738E-01   1.6831E+01  0.000E+00  0.000E+00  0.000E+00  1.05803E+03  9.564E-01  1.200E+01  6.000E-02  1.319E+00
   1    8    6     2     5    1.6831E+01  2.3690E-01   1.6594E+01  0.000E+00  0.000E+00  0.000E+00  1.05331E+03  9.483E-01  1.200E+01  6.000E-02  1.316E+00
   1    3    5     3     1    2.0000E+00  2.8252E-01   1.7175E+00  0.000E+00  0.000E+00  0.000E+00  1.07555E+03  1.909E+00  9.636E+00  7.227E-02  1.955E+00
   1    3    6     3     2    1.7175E+00  2.4905E-01   1.4684E+00  0.000E+00  0.000E+00  0.000E+00  1.07264E+03  1.727E+00  8.909E+00  6.682E-02  1.864E+00
   1    3    7     3     3    1.4684E+00  1.9718E-01   1.2712E+00  0.000E+00  0.000E+00  0.000E+00  1.06987E+03  1.555E+00  8.218E+00  5.547E-02  1.777E+00
   1    4    8     3     4    1.2712E+00  2.2567E-01   1.0456E+00  0.000E+00  0.000E+00  0.000E+00  1.06682E+03  1.364E+00  7.455E+00  6.709E-02  1.682E+00
   1    5    8     3     5    1.0456E+00  1.5790E-01   8.8768E-01  0.000E+00  0.000E+00  0.000E+00  1.06362E+03  1.164E+00  6.655E+00  4.991E-02  1.582E+00
   1    6    8     3     6    8.8768E-01  5.5980E-02   8.3170E-01  0.000E+00  0.000E+00  0.000E+00  1.06158E+03  1.036E+00  6.145E+00  1.844E-02  1.518E+00
   1    5   10     4     1    1.0000E+01  9.0919E-02   9.9091E+00  0.000E+00  0.000E+00  0.000E+00  1.07836E+03  6.368E-01  1.000E+01  2.500E-02  1.212E+00
   1    5    9     4     2    9.9091E+00  1.8158E-01   9.7275E+00  0.000E+00  0.000E+00  0.000E+00  1.07154E+03  6.315E-01  1.000E+01  5.000E-02  1.211E+00
   1    6    8     4     3    9.7275E+00  1.2689E-01   9.6006E+00  0.000E+00  0.000E+00  0.000E+00  1.06381E+03  6.256E-01  1.000E+01  3.500E-02  1.209E+00
   1    6    8     5     1    1.0432E+01  2.2686E-01   1.0205E+01  0.000E+00  0.000E+00  0.000E+00  1.05868E+03  6.790E-01  1.542E+01  6.166E-02  1.226E+00
   1    7    7     5     2    1.0205E+01  2.7894E-01   9.9265E+00  0.000E+00  0.000E+00  0.000E+00  1.05417E+03  6.732E-01  1.519E+01  7.594E-02  1.224E+00
   1    8    7     5     3    9.9265E+00  1.9221E-01   9.7343E+00  0.000E+00  0.000E+00  0.000E+00  1.04992E+03  6.676E-01  1.497E+01  5.241E-02  1.223E+00
   1    8    6     5     4    9.7343E+00  1.3577E-01   9.5985E+00  0.000E+00  0.000E+00  0.000E+00  1.04691E+03  6.637E-01  1.482E+01  3.706E-02  1.221E+00
   1    9    6     6     1    9.5985E+00  2.2097E-01   9.3776E+00  0.000E+00  0.000E+00  0.000E+00  1.04341E+03  6.828E-01  1.200E+01  6.000E-02  1.228E+00
   1   10    7     6     2    9.3776E+00  2.2039E-01   9.1572E+00  0.000E+00  0.000E+00  0.000E+00  1.03885E+03  6.732E-01  1.200E+01  6.000E-02  1.224E+00
   1   11    7     6     3    9.1572E+00  2.1981E-01   8.9374E+00  0.000E+00  0.000E+00  0.000E+00  1.03430E+03  6.636E-01  1.200E+01  6.000E-02  1.221E+00
   1   12    7     6     4    8.9374E+00  2.1923E-01   8.7181E+00  0.000E+00  0.000E+00  0.000E+00  1.02974E+03  6.539E-01  1.200E+01  6.000E-02  1.218E+00
   1   13    7     6     5    8.7181E+00 -1.3618E-01   8.8543E+00  0.000E+00  0.000E+00  0.000E+00  1.02656E+03  6.520E-01  1.200E+01  2.400E-01 -1.891E-01
   1   14    9     7     1    1.5000E+02  1.3355E+00   1.4866E+02  0.000E+00  0.000E+00  0.000E+00  1.03987E+03  2.288E+00  5.529E+01  5.593E-01  7.959E-01
   1   13    8     7     2    1.4866E+02  1.8267E+00   1.4684E+02  0.000E+00  0.000E+00  0.000E+00  1.03478E+03  2.279E+00  5.526E+01  6.148E-01  9.905E-01
   1   13    7     7     3    1.4684E+02  1.4305E+00   1.4541E+02  0.000E+00  0.000E+00  0.000E+00  1.02969E+03  2.271E+00  5.522E+01  5.585E-01  8.538E-01
   1   13    6     8     1    1.5426E+02  7.8042E-01   1.5348E+02  0.000E+00  0.000E+00  0.000E+00  1.02472E+03  2.844E+00  4.124E+01  4.202E-01  6.191E-01
   1   13    5     8     2    1.5348E+02  5.3790E-02   1.5343E+02  0.000E+00  0.000E+00  0.000E+00  1.01847E+03  2.841E+00  4.119E+01  4.198E-01  4.271E-02
   1   13    4     8     3    1.5343E+02 -3.3789E+00   1.5681E+02  0.000E+00  0.000E+00  0.000E+00  1.01223E+03  2.852E+00  4.136E+01  4.215E+00 -2.672E-01
   1   13    3     8     4    1.5681E+02 -4.4453E+00   1.6125E+02  0.000E+00  0.000E+00  0.000E+00  1.00600E+03  2.879E+00  4.175E+01  4.254E+00 -3.483E-01
   1   13    2     8     5    1.6125E+02 -3.4071E+00   1.6466E+02  0.000E+00  0.000E+00  0.000E+00  9.99781E+02  2.906E+00  4.213E+01  4.293E+00 -2.645E-01
   1   13    1     8     6    1.6466E+02 -2.4331E+00   1.6709E+02  0.000E+00  0.000E+00  0.000E+00  9.94800E+02  2.925E+00  4.241E+01  2.593E+00 -3.127E-01
   1    8    6     9     1    1.6594E+01  0.0000E+00   1.6594E+01  0.000E+00  0.000E+00  0.000E+00  1.08182E+03  3.071E+00  4.000E+00  0.000E+00  2.024E+00
   1    8    5     9     2    1.6594E+01  0.0000E+00   1.6594E+01  0.000E+00  0.000E+00  0.000E+00  1.08132E+03  3.071E+00  4.000E+00  0.000E+00  2.024E+00



 UBDSV3 SAVING "           GW ET" ON UNIT  61 AT TIME STEP  2, STRESS PERIOD   5
 UBDSV3 SAVING "    UZF RECHARGE" ON UNIT  61 AT TIME STEP  2, STRESS PERIOD   5
 UBDSV3 SAVING " SURFACE LEAKAGE" ON UNIT  61 AT TIME STEP  2, STRESS PERIOD   5
 UBDSV3 SAVING "       HORT+DUNN" ON UNIT  61 AT TIME STEP  2, STRESS PERIOD   5
 UBDSV3 SAVING "  STORAGE CHANGE" ON UNIT  61 AT TIME STEP  2, STRESS PERIOD   5


UNSATURATED ZONE PACKAGE VOLUMETRIC BUDGET FOR  TIME STEP     2 STRESS PERIOD    5
  ------------------------------------------------------------------------------



     CUMULATIVE VOLUMES      L**3       RATES FOR THIS TIME STEP      L**3/T
     ------------------                 ------------------------

           IN:                                      IN:
           ---                                      ---
        INFILTRATION =    54683693.1100          INFILTRATION =          55.7953

          OUT:                                     OUT:
          ----                                     ----
              UZF ET =     7403799.9883                UZF ET =           4.5675
        UZF RECHARGE =       73224.0000          UZF RECHARGE =       0.0000E+00

            IN - OUT =    47206669.1216              IN - OUT =          51.2278

          STORAGE:                                 STORAGE:
          --------                                 --------
      STORAGE CHANGE =    47206466.5595        STORAGE CHANGE =          51.2255

 PERCENT DISCREPANCY IS DIFFERENCE BETWEEN IN-OUT MINUS CHANGE IN STORAGE
 DIVIDED BY THE AVERAGE OF IN AND OUT TIMES 100

 PERCENT DISCREPANCY =           0.00     PERCENT DISCREPANCY =           0.00






 

        AG WELLS          PERIOD    5   STEP   2
 AG WELL      1   LAYER   1   ROW     6   COL     4   RATE    -6.39229    
 AG WELL      2   LAYER   1   ROW     6   COL     5   RATE    -6.39229    
 AG WELL      3   LAYER   1   ROW     7   COL     4   RATE    -6.39229    
 AG WELL      4   LAYER   1   ROW     7   COL     5   RATE    -6.39229    
 AG WELL      5   LAYER   1   ROW     8   COL     4   RATE    -6.39229    
 AG WELL      6   LAYER   1   ROW     8   COL     5   RATE    -6.39229    
 
 

   DIVERSION SEGMENTS     PERIOD    5   STEP   2
 SEGMENT      9   RATE     16.5937    
 
 

        SW IRRIGATION     PERIOD    5   STEP   2
 SEGMENT      9   ROW     6   COL     4   RATE     2.76568    
 SEGMENT      9   ROW     6   COL     5   RATE     2.76568    
 SEGMENT      9   ROW     7   COL     4   RATE     2.76568    
 SEGMENT      9   ROW     7   COL     5   RATE     2.76568    
 SEGMENT      9   ROW     8   COL     4   RATE     2.76568    
 SEGMENT      9   ROW     8   COL     5   RATE     2.76568    
 
 

        GW IRRIGATION     PERIOD    5   STEP   2
 AG WELL      1   ROW     6   COL     4   RATE     6.39229    
 AG WELL      2   ROW     6   COL     5   RATE     6.39229    
 AG WELL      3   ROW     7   COL     4   RATE     6.39229    
 AG WELL      4   ROW     7   COL     5   RATE     6.39229    
 AG WELL      5   ROW     8   COL     4   RATE     6.39229    
 AG WELL      6   ROW     8   COL     5   RATE     6.39229    
 
1
  VOLUMETRIC BUDGET FOR AGRICULTURAL FIELDS AT  END OF TIME STEP    2, STRESS PERIOD   5
  ------------------------------------------------------------------------------

     CUMULATIVE VOLUMES      L**3       RATES FOR THIS TIME STEP      L**3/T
     ------------------                 ------------------------

           IN:                                      IN:
           ---                                      ---
           AG WELLS      =    44865608.0000             AG WELLS      =          38.3537
      DIVERSION SEGMENTS =     2909437.0000        DIVERSION SEGMENTS =          16.5937
           GW IRRIGATION =           0.0000             GW IRRIGATION =           0.0000
           SW IRRIGATION =           0.0000             SW IRRIGATION =           0.0000
        SYSTEM LOSSES GW =           0.0000          SYSTEM LOSSES GW =           0.0000
        SYSTEM LOSSES SW =           0.0000          SYSTEM LOSSES SW =           0.0000

                TOTAL IN =    47775044.0000                  TOTAL IN =          54.9475

          OUT:                                     OUT:
          ----                                     ----
           AG WELLS      =           0.0000             AG WELLS      =           0.0000
      DIVERSION SEGMENTS =           0.0000        DIVERSION SEGMENTS =           0.0000
           GW IRRIGATION =    44865608.0000             GW IRRIGATION =          38.3537
           SW IRRIGATION =     2909495.0000             SW IRRIGATION =          16.5941
        SYSTEM LOSSES GW =           0.0000          SYSTEM LOSSES GW =           0.0000
        SYSTEM LOSSES SW =           0.0000          SYSTEM LOSSES SW =           0.0000

               TOTAL OUT =    47775104.0000                 TOTAL OUT =          54.9478

                IN - OUT =         -60.0000                  IN - OUT =      -3.3188E-04

     PERCENT DISCREPANCY =          -0.00         PERCENT DISCREPANCY =          -0.00



1
  VOLUMETRIC BUDGET FOR ENTIRE MODEL AT END OF TIME STEP    2, STRESS PERIOD   5
  ------------------------------------------------------------------------------

     CUMULATIVE VOLUMES      L**3       RATES FOR THIS TIME STEP      L**3/T
     ------------------                 ------------------------

           IN:                                      IN:
           ---                                      ---
             STORAGE     =    49906780.0000               STORAGE     =          42.1180
       CONSTANT HEAD     =           0.0000         CONSTANT HEAD     =           0.0000
     HEAD DEP BOUNDS     =     2328828.0000       HEAD DEP BOUNDS     =           0.2857
      STREAM LEAKAGE     =    97840528.0000        STREAM LEAKAGE     =          11.1150
        UZF RECHARGE     =       73223.9531          UZF RECHARGE     =           0.0000
               GW ET     =           0.0000                 GW ET     =           0.0000
     SURFACE LEAKAGE     =           0.0000       SURFACE LEAKAGE     =           0.0000
           AG WELLS      =           0.0000             AG WELLS      =           0.0000

                TOTAL IN =   150149344.0000                  TOTAL IN =          53.5187

          OUT:                                     OUT:
          ----                                     ----
             STORAGE     =    18205644.0000               STORAGE     =           0.9732
       CONSTANT HEAD     =           0.0000         CONSTANT HEAD     =           0.0000
     HEAD DEP BOUNDS     =     2368191.7500       HEAD DEP BOUNDS     =           0.2941
      STREAM LEAKAGE     =    84689784.0000        STREAM LEAKAGE     =          13.8006
        UZF RECHARGE     =           0.0000          UZF RECHARGE     =           0.0000
               GW ET     =       24031.3672                 GW ET     =       9.7083E-02
     SURFACE LEAKAGE     =           0.0000       SURFACE LEAKAGE     =           0.0000
           AG WELLS      =    44865608.0000             AG WELLS      =          38.3537

               TOTAL OUT =   150153248.0000                 TOTAL OUT =          53.5186

                IN - OUT =       -3904.0000                  IN - OUT =       7.6294E-05

     PERCENT DISCREPANCY =          -0.00         PERCENT DISCREPANCY =           0.00






         TIME SUMMARY AT END OF TIME STEP    2 IN STRESS PERIOD    5
                    SECONDS     MINUTES      HOURS       DAYS        YEARS
                    -----------------------------------------------------------
   TIME STEP LENGTH  87667.      1461.1      24.352      1.0147     2.77799E-03
 STRESS PERIOD TIME 1.75333E+05  2922.2      48.704      2.0293     5.55598E-03
         TOTAL TIME 8.15173E+06 1.35862E+05  2264.4      94.349     0.25831    
1
 
 SOLVING FOR HEAD 
                                                   Max.-Head-Change                         Max.-Flux-Residual
  Residual-Control   Outer-Iter.   Inner-Iter.     Column Row Layer    Maximum-Head-Change  Column Row Layer    Maximum-Flux-Residual          L2-NORM 
          0                 1           2             5    8     1       0.4289144949E-01       5    8    1         0.2364240774E+01      0.5222080444E+01
          0                 2           2             5    6     1      -0.8737192148E-01       5    8    1        -0.4815377901E+01      0.1161349455E+02
          0                 3           2             4    7     1       0.5599381841E-01       5    8    1         0.3102699024E+01      0.7587360340E+01
          0                 4           2             4    7     1      -0.8296313275E-01       5    8    1        -0.4705822047E+01      0.1152633921E+02
          0                 5           2             4    7     1       0.1022928255E-02       4    7    1         0.5962320399E-01      0.1460760321E+00
          0                 6           1             4    7     1       0.1504443784E-04       5    8    1         0.8786471769E-03      0.2154408782E-02

    ------------------------------------------------
       NWT REQUIRED            6 OUTER ITERATIONS 
       AND A TOTAL OF         11 INNER ITERATIONS.
    ------------------------------------------------

 OUTPUT CONTROL FOR STRESS PERIOD    5   TIME STEP    3
    PRINT BUDGET
    SAVE BUDGET
 UBDSV1 SAVING "         STORAGE" ON UNIT 102 AT TIME STEP  3, STRESS PERIOD   5
 UBDSV2 SAVING "   CONSTANT HEAD" ON UNIT 102 AT TIME STEP  3, STRESS PERIOD   5
 UBDSV1 SAVING "FLOW RIGHT FACE " ON UNIT 102 AT TIME STEP  3, STRESS PERIOD   5
 UBDSV1 SAVING "FLOW FRONT FACE " ON UNIT 102 AT TIME STEP  3, STRESS PERIOD   5

  HEAD DEP BOUNDS   PERIOD    5   STEP     3
 BOUNDARY      1   LAYER   1   ROW    13   COL     1   RATE   -0.293760    
 BOUNDARY      2   LAYER   1   ROW    14   COL     9   RATE    0.285738    



 STREAM LISTING     PERIOD      5   STEP        3

 LAYER ROW COL. STREAM  RCH.  FLOW INTO     FLOW TO   FLOW OUT OF   OVRLND.     DIRECT     STREAM       STREAM     STREAM     STREAM   STREAMBED  STREAMBED
                SEG.NO.  NO.  STRM. RCH.    AQUIFER    STRM. RCH.    RUNOFF     PRECIP       ET          HEAD       DEPTH      WIDTH   CONDCTNC.   GRADIENT

   1    1    1     1     1    2.1000E+01  2.2591E-01   2.0774E+01  0.000E+00  0.000E+00  0.000E+00  1.09416E+03  1.115E+00  1.220E+01  5.490E-02  1.372E+00
   1    2    2     1     2    2.0774E+01  3.4916E-01   2.0425E+01  0.000E+00  0.000E+00  0.000E+00  1.08917E+03  1.110E+00  1.214E+01  8.495E-02  1.370E+00
   1    3    3     1     3    2.0425E+01  2.9709E-01   2.0128E+01  0.000E+00  0.000E+00  0.000E+00  1.08352E+03  1.105E+00  1.206E+01  7.238E-02  1.368E+00
   1    3    4     1     4    2.0128E+01  2.7299E-01   1.9855E+01  0.000E+00  0.000E+00  0.000E+00  1.07851E+03  1.100E+00  1.200E+01  6.659E-02  1.367E+00
   1    4    5     2     1    1.7855E+01  3.1056E-01   1.7544E+01  0.000E+00  0.000E+00  0.000E+00  1.07292E+03  9.816E-01  1.200E+01  7.800E-02  1.327E+00
   1    5    6     2     2    1.7544E+01  2.3834E-01   1.7306E+01  0.000E+00  0.000E+00  0.000E+00  1.06748E+03  9.724E-01  1.200E+01  6.000E-02  1.324E+00
   1    6    6     2     3    1.7306E+01  2.3786E-01   1.7068E+01  0.000E+00  0.000E+00  0.000E+00  1.06276E+03  9.644E-01  1.200E+01  6.000E-02  1.321E+00
   1    7    6     2     4    1.7068E+01  2.3738E-01   1.6831E+01  0.000E+00  0.000E+00  0.000E+00  1.05803E+03  9.564E-01  1.200E+01  6.000E-02  1.319E+00
   1    8    6     2     5    1.6831E+01  2.3690E-01   1.6594E+01  0.000E+00  0.000E+00  0.000E+00  1.05331E+03  9.483E-01  1.200E+01  6.000E-02  1.316E+00
   1    3    5     3     1    2.0000E+00  2.8252E-01   1.7175E+00  0.000E+00  0.000E+00  0.000E+00  1.07555E+03  1.909E+00  9.636E+00  7.227E-02  1.955E+00
   1    3    6     3     2    1.7175E+00  2.4905E-01   1.4684E+00  0.000E+00  0.000E+00  0.000E+00  1.07264E+03  1.727E+00  8.909E+00  6.682E-02  1.864E+00
   1    3    7     3     3    1.4684E+00  1.9718E-01   1.2712E+00  0.000E+00  0.000E+00  0.000E+00  1.06987E+03  1.555E+00  8.218E+00  5.547E-02  1.777E+00
   1    4    8     3     4    1.2712E+00  2.2567E-01   1.0456E+00  0.000E+00  0.000E+00  0.000E+00  1.06682E+03  1.364E+00  7.455E+00  6.709E-02  1.682E+00
   1    5    8     3     5    1.0456E+00  1.5790E-01   8.8768E-01  0.000E+00  0.000E+00  0.000E+00  1.06362E+03  1.164E+00  6.655E+00  4.991E-02  1.582E+00
   1    6    8     3     6    8.8768E-01  5.5980E-02   8.3170E-01  0.000E+00  0.000E+00  0.000E+00  1.06158E+03  1.036E+00  6.145E+00  1.844E-02  1.518E+00
   1    5   10     4     1    1.0000E+01  9.0919E-02   9.9091E+00  0.000E+00  0.000E+00  0.000E+00  1.07836E+03  6.368E-01  1.000E+01  2.500E-02  1.212E+00
   1    5    9     4     2    9.9091E+00  1.8158E-01   9.7275E+00  0.000E+00  0.000E+00  0.000E+00  1.07154E+03  6.315E-01  1.000E+01  5.000E-02  1.211E+00
   1    6    8     4     3    9.7275E+00  1.2689E-01   9.6006E+00  0.000E+00  0.000E+00  0.000E+00  1.06381E+03  6.256E-01  1.000E+01  3.500E-02  1.209E+00
   1    6    8     5     1    1.0432E+01  2.2686E-01   1.0205E+01  0.000E+00  0.000E+00  0.000E+00  1.05868E+03  6.790E-01  1.542E+01  6.166E-02  1.226E+00
   1    7    7     5     2    1.0205E+01  2.7894E-01   9.9265E+00  0.000E+00  0.000E+00  0.000E+00  1.05417E+03  6.732E-01  1.519E+01  7.594E-02  1.224E+00
   1    8    7     5     3    9.9265E+00  1.9221E-01   9.7343E+00  0.000E+00  0.000E+00  0.000E+00  1.04992E+03  6.676E-01  1.497E+01  5.241E-02  1.223E+00
   1    8    6     5     4    9.7343E+00  1.3577E-01   9.5985E+00  0.000E+00  0.000E+00  0.000E+00  1.04691E+03  6.637E-01  1.482E+01  3.706E-02  1.221E+00
   1    9    6     6     1    9.5985E+00  2.2097E-01   9.3776E+00  0.000E+00  0.000E+00  0.000E+00  1.04341E+03  6.828E-01  1.200E+01  6.000E-02  1.228E+00
   1   10    7     6     2    9.3776E+00  2.2039E-01   9.1572E+00  0.000E+00  0.000E+00  0.000E+00  1.03885E+03  6.732E-01  1.200E+01  6.000E-02  1.224E+00
   1   11    7     6     3    9.1572E+00  2.1981E-01   8.9374E+00  0.000E+00  0.000E+00  0.000E+00  1.03430E+03  6.636E-01  1.200E+01  6.000E-02  1.221E+00
   1   12    7     6     4    8.9374E+00  2.1923E-01   8.7181E+00  0.000E+00  0.000E+00  0.000E+00  1.02974E+03  6.539E-01  1.200E+01  6.000E-02  1.218E+00
   1   13    7     6     5    8.7181E+00 -1.3575E-01   8.8539E+00  0.000E+00  0.000E+00  0.000E+00  1.02656E+03  6.520E-01  1.200E+01  2.400E-01 -1.885E-01
   1   14    9     7     1    1.5000E+02  1.3355E+00   1.4866E+02  0.000E+00  0.000E+00  0.000E+00  1.03987E+03  2.288E+00  5.529E+01  5.593E-01  7.959E-01
   1   13    8     7     2    1.4866E+02  1.8266E+00   1.4684E+02  0.000E+00  0.000E+00  0.000E+00  1.03478E+03  2.279E+00  5.526E+01  6.148E-01  9.904E-01
   1   13    7     7     3    1.4684E+02  1.4315E+00   1.4541E+02  0.000E+00  0.000E+00  0.000E+00  1.02969E+03  2.271E+00  5.522E+01  5.585E-01  8.544E-01
   1   13    6     8     1    1.5426E+02  7.8146E-01   1.5348E+02  0.000E+00  0.000E+00  0.000E+00  1.02472E+03  2.844E+00  4.124E+01  4.202E-01  6.199E-01
   1   13    5     8     2    1.5348E+02  5.4503E-02   1.5342E+02  0.000E+00  0.000E+00  0.000E+00  1.01847E+03  2.841E+00  4.119E+01  4.198E-01  4.328E-02
   1   13    4     8     3    1.5342E+02 -3.3214E+00   1.5675E+02  0.000E+00  0.000E+00  0.000E+00  1.01223E+03  2.852E+00  4.136E+01  4.215E+00 -2.627E-01
   1   13    3     8     4    1.5675E+02 -4.3916E+00   1.6114E+02  0.000E+00  0.000E+00  0.000E+00  1.00600E+03  2.879E+00  4.174E+01  4.254E+00 -3.442E-01
   1   13    2     8     5    1.6114E+02 -3.3508E+00   1.6449E+02  0.000E+00  0.000E+00  0.000E+00  9.99780E+02  2.905E+00  4.212E+01  4.292E+00 -2.602E-01
   1   13    1     8     6    1.6449E+02 -2.4149E+00   1.6690E+02  0.000E+00  0.000E+00  0.000E+00  9.94799E+02  2.924E+00  4.240E+01  2.592E+00 -3.105E-01
   1    8    6     9     1    1.6594E+01  0.0000E+00   1.6594E+01  0.000E+00  0.000E+00  0.000E+00  1.08182E+03  3.071E+00  4.000E+00  0.000E+00  2.024E+00
   1    8    5     9     2    1.6594E+01  0.0000E+00   1.6594E+01  0.000E+00  0.000E+00  0.000E+00  1.08132E+03  3.071E+00  4.000E+00  0.000E+00  2.024E+00



 UBDSV3 SAVING "           GW ET" ON UNIT  61 AT TIME STEP  3, STRESS PERIOD   5
 UBDSV3 SAVING "    UZF RECHARGE" ON UNIT  61 AT TIME STEP  3, STRESS PERIOD   5
 UBDSV3 SAVING " SURFACE LEAKAGE" ON UNIT  61 AT TIME STEP  3, STRESS PERIOD   5
 UBDSV3 SAVING "       HORT+DUNN" ON UNIT  61 AT TIME STEP  3, STRESS PERIOD   5
 UBDSV3 SAVING "  STORAGE CHANGE" ON UNIT  61 AT TIME STEP  3, STRESS PERIOD   5


UNSATURATED ZONE PACKAGE VOLUMETRIC BUDGET FOR  TIME STEP     3 STRESS PERIOD    5
  ------------------------------------------------------------------------------



     CUMULATIVE VOLUMES      L**3       RATES FOR THIS TIME STEP      L**3/T
     ------------------                 ------------------------

           IN:                                      IN:
           ---                                      ---
        INFILTRATION =    59575081.1059          INFILTRATION =          55.7953

          OUT:                                     OUT:
          ----                                     ----
              UZF ET =     7804217.4686                UZF ET =           4.5675
        UZF RECHARGE =       73224.0000          UZF RECHARGE =       0.0000E+00

            IN - OUT =    51697639.6373              IN - OUT =          51.2278

          STORAGE:                                 STORAGE:
          --------                                 --------
      STORAGE CHANGE =    51697437.2083        STORAGE CHANGE =          51.2278

 PERCENT DISCREPANCY IS DIFFERENCE BETWEEN IN-OUT MINUS CHANGE IN STORAGE
 DIVIDED BY THE AVERAGE OF IN AND OUT TIMES 100

 PERCENT DISCREPANCY =           0.00     PERCENT DISCREPANCY =          -0.00






 

        AG WELLS          PERIOD    5   STEP   3
 AG WELL      1   LAYER   1   ROW     6   COL     4   RATE    -6.39229    
 AG WELL      2   LAYER   1   ROW     6   COL     5   RATE    -6.39229    
 AG WELL      3   LAYER   1   ROW     7   COL     4   RATE    -6.39229    
 AG WELL      4   LAYER   1   ROW     7   COL     5   RATE    -6.39229    
 AG WELL      5   LAYER   1   ROW     8   COL     4   RATE    -6.39229    
 AG WELL      6   LAYER   1   ROW     8   COL     5   RATE    -6.39229    
 
 

   DIVERSION SEGMENTS     PERIOD    5   STEP   3
 SEGMENT      9   RATE     16.5937    
 
 

        SW IRRIGATION     PERIOD    5   STEP   3
 SEGMENT      9   ROW     6   COL     4   RATE     2.76568    
 SEGMENT      9   ROW     6   COL     5   RATE     2.76568    
 SEGMENT      9   ROW     7   COL     4   RATE     2.76568    
 SEGMENT      9   ROW     7   COL     5   RATE     2.76568    
 SEGMENT      9   ROW     8   COL     4   RATE     2.76568    
 SEGMENT      9   ROW     8   COL     5   RATE     2.76568    
 
 

        GW IRRIGATION     PERIOD    5   STEP   3
 AG WELL      1   ROW     6   COL     4   RATE     6.39229    
 AG WELL      2   ROW     6   COL     5   RATE     6.39229    
 AG WELL      3   ROW     7   COL     4   RATE     6.39229    
 AG WELL      4   ROW     7   COL     5   RATE     6.39229    
 AG WELL      5   ROW     8   COL     4   RATE     6.39229    
 AG WELL      6   ROW     8   COL     5   RATE     6.39229    
 
1
  VOLUMETRIC BUDGET FOR AGRICULTURAL FIELDS AT  END OF TIME STEP    3, STRESS PERIOD   5
  ------------------------------------------------------------------------------

     CUMULATIVE VOLUMES      L**3       RATES FOR THIS TIME STEP      L**3/T
     ------------------                 ------------------------

           IN:                                      IN:
           ---                                      ---
           AG WELLS      =    48227952.0000             AG WELLS      =          38.3537
      DIVERSION SEGMENTS =     4364155.5000        DIVERSION SEGMENTS =          16.5937
           GW IRRIGATION =           0.0000             GW IRRIGATION =           0.0000
           SW IRRIGATION =           0.0000             SW IRRIGATION =           0.0000
        SYSTEM LOSSES GW =           0.0000          SYSTEM LOSSES GW =           0.0000
        SYSTEM LOSSES SW =           0.0000          SYSTEM LOSSES SW =           0.0000

                TOTAL IN =    52592108.0000                  TOTAL IN =          54.9475

          OUT:                                     OUT:
          ----                                     ----
           AG WELLS      =           0.0000             AG WELLS      =           0.0000
      DIVERSION SEGMENTS =           0.0000        DIVERSION SEGMENTS =           0.0000
           GW IRRIGATION =    48227952.0000             GW IRRIGATION =          38.3537
           SW IRRIGATION =     4364242.5000             SW IRRIGATION =          16.5941
        SYSTEM LOSSES GW =           0.0000          SYSTEM LOSSES GW =           0.0000
        SYSTEM LOSSES SW =           0.0000          SYSTEM LOSSES SW =           0.0000

               TOTAL OUT =    52592196.0000                 TOTAL OUT =          54.9478

                IN - OUT =         -88.0000                  IN - OUT =      -3.3188E-04

     PERCENT DISCREPANCY =          -0.00         PERCENT DISCREPANCY =          -0.00



1
  VOLUMETRIC BUDGET FOR ENTIRE MODEL AT END OF TIME STEP    3, STRESS PERIOD   5
  ------------------------------------------------------------------------------

     CUMULATIVE VOLUMES      L**3       RATES FOR THIS TIME STEP      L**3/T
     ------------------                 ------------------------

           IN:                                      IN:
           ---                                      ---
             STORAGE     =    53573920.0000               STORAGE     =          41.8305
       CONSTANT HEAD     =           0.0000         CONSTANT HEAD     =           0.0000
     HEAD DEP BOUNDS     =     2353877.7500       HEAD DEP BOUNDS     =           0.2857
      STREAM LEAKAGE     =    98815176.0000        STREAM LEAKAGE     =          11.1176
        UZF RECHARGE     =       73223.9531          UZF RECHARGE     =           0.0000
               GW ET     =           0.0000                 GW ET     =           0.0000
     SURFACE LEAKAGE     =           0.0000       SURFACE LEAKAGE     =           0.0000
           AG WELLS      =           0.0000             AG WELLS      =           0.0000

                TOTAL IN =   154816192.0000                  TOTAL IN =          53.2338

          OUT:                                     OUT:
          ----                                     ----
             STORAGE     =    18285244.0000               STORAGE     =           0.9080
       CONSTANT HEAD     =           0.0000         CONSTANT HEAD     =           0.0000
     HEAD DEP BOUNDS     =     2393944.7500       HEAD DEP BOUNDS     =           0.2938
      STREAM LEAKAGE     =    85883320.0000        STREAM LEAKAGE     =          13.6144
        UZF RECHARGE     =           0.0000          UZF RECHARGE     =           0.0000
               GW ET     =       29629.4805                 GW ET     =       6.3857E-02
     SURFACE LEAKAGE     =           0.0000       SURFACE LEAKAGE     =           0.0000
           AG WELLS      =    48227952.0000             AG WELLS      =          38.3537

               TOTAL OUT =   154820096.0000                 TOTAL OUT =          53.2338

                IN - OUT =       -3904.0000                  IN - OUT =       7.6294E-05

     PERCENT DISCREPANCY =          -0.00         PERCENT DISCREPANCY =           0.00






         TIME SUMMARY AT END OF TIME STEP    3 IN STRESS PERIOD    5
                    SECONDS     MINUTES      HOURS       DAYS        YEARS
                    -----------------------------------------------------------
   TIME STEP LENGTH  87667.      1461.1      24.352      1.0147     2.77799E-03
 STRESS PERIOD TIME 2.63000E+05  4383.3      73.056      3.0440     8.33397E-03
         TOTAL TIME 8.23939E+06 1.37323E+05  2288.7      95.363     0.26109    
1
 
 SOLVING FOR HEAD 
                                                   Max.-Head-Change                         Max.-Flux-Residual
  Residual-Control   Outer-Iter.   Inner-Iter.     Column Row Layer    Maximum-Head-Change  Column Row Layer    Maximum-Flux-Residual          L2-NORM 
          0                 1           2             5    8     1       0.4393613422E-01       5    8    1         0.2420080749E+01      0.5352309290E+01
          0                 2           2             5    6     1      -0.8747616504E-01       5    8    1        -0.4820961807E+01      0.1163041846E+02
          0                 3           2             4    7     1       0.5600233999E-01       5    8    1         0.3103089912E+01      0.7588496442E+01
          0                 4           2             4    7     1      -0.8296367222E-01       5    8    1        -0.4705838112E+01      0.1152638496E+02
          0                 5           2             4    7     1       0.1022936697E-02       4    7    1         0.5962344567E-01      0.1460797005E+00
          0                 6           1             4    7     1       0.1504456173E-04       5    8    1         0.8786500093E-03      0.2154460134E-02

    ------------------------------------------------
       NWT REQUIRED            6 OUTER ITERATIONS 
       AND A TOTAL OF         11 INNER ITERATIONS.
    ------------------------------------------------

 OUTPUT CONTROL FOR STRESS PERIOD    5   TIME STEP    4
    PRINT BUDGET
    SAVE BUDGET
 UBDSV1 SAVING "         STORAGE" ON UNIT 102 AT TIME STEP  4, STRESS PERIOD   5
 UBDSV2 SAVING "   CONSTANT HEAD" ON UNIT 102 AT TIME STEP  4, STRESS PERIOD   5
 UBDSV1 SAVING "FLOW RIGHT FACE " ON UNIT 102 AT TIME STEP  4, STRESS PERIOD   5
 UBDSV1 SAVING "FLOW FRONT FACE " ON UNIT 102 AT TIME STEP  4, STRESS PERIOD   5

  HEAD DEP BOUNDS   PERIOD    5   STEP     4
 BOUNDARY      1   LAYER   1   ROW    13   COL     1   RATE   -0.293473    
 BOUNDARY      2   LAYER   1   ROW    14   COL     9   RATE    0.285739    



 STREAM LISTING     PERIOD      5   STEP        4

 LAYER ROW COL. STREAM  RCH.  FLOW INTO     FLOW TO   FLOW OUT OF   OVRLND.     DIRECT     STREAM       STREAM     STREAM     STREAM   STREAMBED  STREAMBED
                SEG.NO.  NO.  STRM. RCH.    AQUIFER    STRM. RCH.    RUNOFF     PRECIP       ET          HEAD       DEPTH      WIDTH   CONDCTNC.   GRADIENT

   1    1    1     1     1    2.1000E+01  2.2591E-01   2.0774E+01  0.000E+00  0.000E+00  0.000E+00  1.09416E+03  1.115E+00  1.220E+01  5.490E-02  1.372E+00
   1    2    2     1     2    2.0774E+01  3.4916E-01   2.0425E+01  0.000E+00  0.000E+00  0.000E+00  1.08917E+03  1.110E+00  1.214E+01  8.495E-02  1.370E+00
   1    3    3     1     3    2.0425E+01  2.9709E-01   2.0128E+01  0.000E+00  0.000E+00  0.000E+00  1.08352E+03  1.105E+00  1.206E+01  7.238E-02  1.368E+00
   1    3    4     1     4    2.0128E+01  2.7299E-01   1.9855E+01  0.000E+00  0.000E+00  0.000E+00  1.07851E+03  1.100E+00  1.200E+01  6.659E-02  1.367E+00
   1    4    5     2     1    1.7855E+01  3.1056E-01   1.7544E+01  0.000E+00  0.000E+00  0.000E+00  1.07292E+03  9.816E-01  1.200E+01  7.800E-02  1.327E+00
   1    5    6     2     2    1.7544E+01  2.3834E-01   1.7306E+01  0.000E+00  0.000E+00  0.000E+00  1.06748E+03  9.724E-01  1.200E+01  6.000E-02  1.324E+00
   1    6    6     2     3    1.7306E+01  2.3786E-01   1.7068E+01  0.000E+00  0.000E+00  0.000E+00  1.06276E+03  9.644E-01  1.200E+01  6.000E-02  1.321E+00
   1    7    6     2     4    1.7068E+01  2.3738E-01   1.6831E+01  0.000E+00  0.000E+00  0.000E+00  1.05803E+03  9.564E-01  1.200E+01  6.000E-02  1.319E+00
   1    8    6     2     5    1.6831E+01  2.3690E-01   1.6594E+01  0.000E+00  0.000E+00  0.000E+00  1.05331E+03  9.483E-01  1.200E+01  6.000E-02  1.316E+00
   1    3    5     3     1    2.0000E+00  2.8252E-01   1.7175E+00  0.000E+00  0.000E+00  0.000E+00  1.07555E+03  1.909E+00  9.636E+00  7.227E-02  1.955E+00
   1    3    6     3     2    1.7175E+00  2.4905E-01   1.4684E+00  0.000E+00  0.000E+00  0.000E+00  1.07264E+03  1.727E+00  8.909E+00  6.682E-02  1.864E+00
   1    3    7     3     3    1.4684E+00  1.9718E-01   1.2712E+00  0.000E+00  0.000E+00  0.000E+00  1.06987E+03  1.555E+00  8.218E+00  5.547E-02  1.777E+00
   1    4    8     3     4    1.2712E+00  2.2567E-01   1.0456E+00  0.000E+00  0.000E+00  0.000E+00  1.06682E+03  1.364E+00  7.455E+00  6.709E-02  1.682E+00
   1    5    8     3     5    1.0456E+00  1.5790E-01   8.8768E-01  0.000E+00  0.000E+00  0.000E+00  1.06362E+03  1.164E+00  6.655E+00  4.991E-02  1.582E+00
   1    6    8     3     6    8.8768E-01  5.5980E-02   8.3170E-01  0.000E+00  0.000E+00  0.000E+00  1.06158E+03  1.036E+00  6.145E+00  1.844E-02  1.518E+00
   1    5   10     4     1    1.0000E+01  9.0919E-02   9.9091E+00  0.000E+00  0.000E+00  0.000E+00  1.07836E+03  6.368E-01  1.000E+01  2.500E-02  1.212E+00
   1    5    9     4     2    9.9091E+00  1.8158E-01   9.7275E+00  0.000E+00  0.000E+00  0.000E+00  1.07154E+03  6.315E-01  1.000E+01  5.000E-02  1.211E+00
   1    6    8     4     3    9.7275E+00  1.2689E-01   9.6006E+00  0.000E+00  0.000E+00  0.000E+00  1.06381E+03  6.256E-01  1.000E+01  3.500E-02  1.209E+00
   1    6    8     5     1    1.0432E+01  2.2686E-01   1.0205E+01  0.000E+00  0.000E+00  0.000E+00  1.05868E+03  6.790E-01  1.542E+01  6.166E-02  1.226E+00
   1    7    7     5     2    1.0205E+01  2.7894E-01   9.9265E+00  0.000E+00  0.000E+00  0.000E+00  1.05417E+03  6.732E-01  1.519E+01  7.594E-02  1.224E+00
   1    8    7     5     3    9.9265E+00  1.9221E-01   9.7343E+00  0.000E+00  0.000E+00  0.000E+00  1.04992E+03  6.676E-01  1.497E+01  5.241E-02  1.223E+00
   1    8    6     5     4    9.7343E+00  1.3577E-01   9.5985E+00  0.000E+00  0.000E+00  0.000E+00  1.04691E+03  6.637E-01  1.482E+01  3.706E-02  1.221E+00
   1    9    6     6     1    9.5985E+00  2.2097E-01   9.3776E+00  0.000E+00  0.000E+00  0.000E+00  1.04341E+03  6.828E-01  1.200E+01  6.000E-02  1.228E+00
   1   10    7     6     2    9.3776E+00  2.2039E-01   9.1572E+00  0.000E+00  0.000E+00  0.000E+00  1.03885E+03  6.732E-01  1.200E+01  6.000E-02  1.224E+00
   1   11    7     6     3    9.1572E+00  2.1981E-01   8.9374E+00  0.000E+00  0.000E+00  0.000E+00  1.03430E+03  6.636E-01  1.200E+01  6.000E-02  1.221E+00
   1   12    7     6     4    8.9374E+00  2.1923E-01   8.7181E+00  0.000E+00  0.000E+00  0.000E+00  1.02974E+03  6.539E-01  1.200E+01  6.000E-02  1.218E+00
   1   13    7     6     5    8.7181E+00 -1.3534E-01   8.8535E+00  0.000E+00  0.000E+00  0.000E+00  1.02656E+03  6.520E-01  1.200E+01  2.400E-01 -1.880E-01
   1   14    9     7     1    1.5000E+02  1.3355E+00   1.4866E+02  0.000E+00  0.000E+00  0.000E+00  1.03987E+03  2.288E+00  5.529E+01  5.593E-01  7.959E-01
   1   13    8     7     2    1.4866E+02  1.8265E+00   1.4684E+02  0.000E+00  0.000E+00  0.000E+00  1.03478E+03  2.279E+00  5.526E+01  6.148E-01  9.903E-01
   1   13    7     7     3    1.4684E+02  1.4324E+00   1.4541E+02  0.000E+00  0.000E+00  0.000E+00  1.02969E+03  2.271E+00  5.522E+01  5.585E-01  8.550E-01
   1   13    6     8     1    1.5426E+02  7.8247E-01   1.5348E+02  0.000E+00  0.000E+00  0.000E+00  1.02472E+03  2.844E+00  4.124E+01  4.202E-01  6.207E-01
   1   13    5     8     2    1.5348E+02  5.5251E-02   1.5342E+02  0.000E+00  0.000E+00  0.000E+00  1.01847E+03  2.841E+00  4.119E+01  4.198E-01  4.387E-02
   1   13    4     8     3    1.5342E+02 -3.2702E+00   1.5669E+02  0.000E+00  0.000E+00  0.000E+00  1.01223E+03  2.852E+00  4.136E+01  4.214E+00 -2.587E-01
   1   13    3     8     4    1.5669E+02 -4.3430E+00   1.6103E+02  0.000E+00  0.000E+00  0.000E+00  1.00600E+03  2.878E+00  4.173E+01  4.253E+00 -3.404E-01
   1   13    2     8     5    1.6103E+02 -3.2985E+00   1.6433E+02  0.000E+00  0.000E+00  0.000E+00  9.99779E+02  2.904E+00  4.211E+01  4.291E+00 -2.562E-01
   1   13    1     8     6    1.6433E+02 -2.3972E+00   1.6673E+02  0.000E+00  0.000E+00  0.000E+00  9.94798E+02  2.923E+00  4.238E+01  2.591E+00 -3.084E-01
   1    8    6     9     1    1.6594E+01  0.0000E+00   1.6594E+01  0.000E+00  0.000E+00  0.000E+00  1.08182E+03  3.071E+00  4.000E+00  0.000E+00  2.024E+00
   1    8    5     9     2    1.6594E+01  0.0000E+00   1.6594E+01  0.000E+00  0.000E+00  0.000E+00  1.08132E+03  3.071E+00  4.000E+00  0.000E+00  2.024E+00



 UBDSV3 SAVING "           GW ET" ON UNIT  61 AT TIME STEP  4, STRESS PERIOD   5
 UBDSV3 SAVING "    UZF RECHARGE" ON UNIT  61 AT TIME STEP  4, STRESS PERIOD   5
 UBDSV3 SAVING " SURFACE LEAKAGE" ON UNIT  61 AT TIME STEP  4, STRESS PERIOD   5
 UBDSV3 SAVING "       HORT+DUNN" ON UNIT  61 AT TIME STEP  4, STRESS PERIOD   5
 UBDSV3 SAVING "  STORAGE CHANGE" ON UNIT  61 AT TIME STEP  4, STRESS PERIOD   5


UNSATURATED ZONE PACKAGE VOLUMETRIC BUDGET FOR  TIME STEP     4 STRESS PERIOD    5
  ------------------------------------------------------------------------------



     CUMULATIVE VOLUMES      L**3       RATES FOR THIS TIME STEP      L**3/T
     ------------------                 ------------------------

           IN:                                      IN:
           ---                                      ---
        INFILTRATION =    64466469.1017          INFILTRATION =          55.7953

          OUT:                                     OUT:
          ----                                     ----
              UZF ET =     8204634.9489                UZF ET =           4.5675
        UZF RECHARGE =       73224.0000          UZF RECHARGE =       0.0000E+00

            IN - OUT =    56188610.1529              IN - OUT =          51.2278

          STORAGE:                                 STORAGE:
          --------                                 --------
      STORAGE CHANGE =    56188407.8570        STORAGE CHANGE =          51.2278

 PERCENT DISCREPANCY IS DIFFERENCE BETWEEN IN-OUT MINUS CHANGE IN STORAGE
 DIVIDED BY THE AVERAGE OF IN AND OUT TIMES 100

 PERCENT DISCREPANCY =           0.00     PERCENT DISCREPANCY =          -0.00






 

        AG WELLS          PERIOD    5   STEP   4
 AG WELL      1   LAYER   1   ROW     6   COL     4   RATE    -6.39229    
 AG WELL      2   LAYER   1   ROW     6   COL     5   RATE    -6.39229    
 AG WELL      3   LAYER   1   ROW     7   COL     4   RATE    -6.39229    
 AG WELL      4   LAYER   1   ROW     7   COL     5   RATE    -6.39229    
 AG WELL      5   LAYER   1   ROW     8   COL     4   RATE    -6.39229    
 AG WELL      6   LAYER   1   ROW     8   COL     5   RATE    -6.39229    
 
 

   DIVERSION SEGMENTS     PERIOD    5   STEP   4
 SEGMENT      9   RATE     16.5937    
 
 

        SW IRRIGATION     PERIOD    5   STEP   4
 SEGMENT      9   ROW     6   COL     4   RATE     2.76568    
 SEGMENT      9   ROW     6   COL     5   RATE     2.76568    
 SEGMENT      9   ROW     7   COL     4   RATE     2.76568    
 SEGMENT      9   ROW     7   COL     5   RATE     2.76568    
 SEGMENT      9   ROW     8   COL     4   RATE     2.76568    
 SEGMENT      9   ROW     8   COL     5   RATE     2.76568    
 
 

        GW IRRIGATION     PERIOD    5   STEP   4
 AG WELL      1   ROW     6   COL     4   RATE     6.39229    
 AG WELL      2   ROW     6   COL     5   RATE     6.39229    
 AG WELL      3   ROW     7   COL     4   RATE     6.39229    
 AG WELL      4   ROW     7   COL     5   RATE     6.39229    
 AG WELL      5   ROW     8   COL     4   RATE     6.39229    
 AG WELL      6   ROW     8   COL     5   RATE     6.39229    
 
1
  VOLUMETRIC BUDGET FOR AGRICULTURAL FIELDS AT  END OF TIME STEP    4, STRESS PERIOD   5
  ------------------------------------------------------------------------------

     CUMULATIVE VOLUMES      L**3       RATES FOR THIS TIME STEP      L**3/T
     ------------------                 ------------------------

           IN:                                      IN:
           ---                                      ---
           AG WELLS      =    51590296.0000             AG WELLS      =          38.3537
      DIVERSION SEGMENTS =     5818874.0000        DIVERSION SEGMENTS =          16.5937
           GW IRRIGATION =           0.0000             GW IRRIGATION =           0.0000
           SW IRRIGATION =           0.0000             SW IRRIGATION =           0.0000
        SYSTEM LOSSES GW =           0.0000          SYSTEM LOSSES GW =           0.0000
        SYSTEM LOSSES SW =           0.0000          SYSTEM LOSSES SW =           0.0000

                TOTAL IN =    57409168.0000                  TOTAL IN =          54.9475

          OUT:                                     OUT:
          ----                                     ----
           AG WELLS      =           0.0000             AG WELLS      =           0.0000
      DIVERSION SEGMENTS =           0.0000        DIVERSION SEGMENTS =           0.0000
           GW IRRIGATION =    51590296.0000             GW IRRIGATION =          38.3537
           SW IRRIGATION =     5818990.0000             SW IRRIGATION =          16.5941
        SYSTEM LOSSES GW =           0.0000          SYSTEM LOSSES GW =           0.0000
        SYSTEM LOSSES SW =           0.0000          SYSTEM LOSSES SW =           0.0000

               TOTAL OUT =    57409288.0000                 TOTAL OUT =          54.9478

                IN - OUT =        -120.0000                  IN - OUT =      -3.3188E-04

     PERCENT DISCREPANCY =          -0.00         PERCENT DISCREPANCY =          -0.00



1
  VOLUMETRIC BUDGET FOR ENTIRE MODEL AT END OF TIME STEP    4, STRESS PERIOD   5
  ------------------------------------------------------------------------------

     CUMULATIVE VOLUMES      L**3       RATES FOR THIS TIME STEP      L**3/T
     ------------------                 ------------------------

           IN:                                      IN:
           ---                                      ---
             STORAGE     =    57217596.0000               STORAGE     =          41.5628
       CONSTANT HEAD     =           0.0000         CONSTANT HEAD     =           0.0000
     HEAD DEP BOUNDS     =     2378927.5000       HEAD DEP BOUNDS     =           0.2857
      STREAM LEAKAGE     =    99790056.0000        STREAM LEAKAGE     =          11.1203
        UZF RECHARGE     =       73223.9531          UZF RECHARGE     =           0.0000
               GW ET     =           0.0000                 GW ET     =           0.0000
     SURFACE LEAKAGE     =           0.0000       SURFACE LEAKAGE     =           0.0000
           AG WELLS      =           0.0000             AG WELLS      =           0.0000

                TOTAL IN =   159459792.0000                  TOTAL IN =          52.9688

          OUT:                                     OUT:
          ----                                     ----
             STORAGE     =    18359166.0000               STORAGE     =           0.8432
       CONSTANT HEAD     =           0.0000         CONSTANT HEAD     =           0.0000
     HEAD DEP BOUNDS     =     2419672.5000       HEAD DEP BOUNDS     =           0.2935
      STREAM LEAKAGE     =    87061936.0000        STREAM LEAKAGE     =          13.4443
        UZF RECHARGE     =           0.0000          UZF RECHARGE     =           0.0000
               GW ET     =       32612.2715                 GW ET     =       3.4024E-02
     SURFACE LEAKAGE     =           0.0000       SURFACE LEAKAGE     =           0.0000
           AG WELLS      =    51590296.0000             AG WELLS      =          38.3537

               TOTAL OUT =   159463680.0000                 TOTAL OUT =          52.9688

                IN - OUT =       -3888.0000                  IN - OUT =       8.0109E-05

     PERCENT DISCREPANCY =          -0.00         PERCENT DISCREPANCY =           0.00






         TIME SUMMARY AT END OF TIME STEP    4 IN STRESS PERIOD    5
                    SECONDS     MINUTES      HOURS       DAYS        YEARS
                    -----------------------------------------------------------
   TIME STEP LENGTH  87667.      1461.1      24.352      1.0147     2.77799E-03
 STRESS PERIOD TIME 3.50667E+05  5844.4      97.407      4.0586     1.11120E-02
         TOTAL TIME 8.32706E+06 1.38784E+05  2313.1      96.378     0.26387    
1
 
 SOLVING FOR HEAD 
                                                   Max.-Head-Change                         Max.-Flux-Residual
  Residual-Control   Outer-Iter.   Inner-Iter.     Column Row Layer    Maximum-Head-Change  Column Row Layer    Maximum-Flux-Residual          L2-NORM 
          0                 1           2             5    8     1       0.4495182558E-01       5    8    1         0.2474371680E+01      0.5485814537E+01
          0                 2           2             5    6     1      -0.8757748968E-01       5    8    1        -0.4826390807E+01      0.1164699075E+02
          0                 3           2             4    7     1       0.5601081012E-01       5    8    1         0.3103469956E+01      0.7589599914E+01
          0                 4           2             4    7     1      -0.8296420820E-01       5    8    1        -0.4705853731E+01      0.1152643003E+02
          0                 5           2             4    7     1       0.1022943305E-02       4    7    1         0.5962368608E-01      0.1460802223E+00
          0                 6           1             4    7     1       0.1504465919E-04       5    8    1         0.8786528078E-03      0.2154467041E-02

    ------------------------------------------------
       NWT REQUIRED            6 OUTER ITERATIONS 
       AND A TOTAL OF         11 INNER ITERATIONS.
    ------------------------------------------------

 NO OUTPUT CONTROL FOR STRESS PERIOD    5   TIME STEP    5
 
 SOLVING FOR HEAD 
                                                   Max.-Head-Change                         Max.-Flux-Residual
  Residual-Control   Outer-Iter.   Inner-Iter.     Column Row Layer    Maximum-Head-Change  Column Row Layer    Maximum-Flux-Residual          L2-NORM 
          0                 1           2             5    8     1       0.4593926965E-01       5    8    1         0.2527151187E+01      0.5621467216E+01
          0                 2           2             5    6     1      -0.8767604400E-01       5    8    1        -0.4831668663E+01      0.1166290362E+02
          0                 3           2             4    7     1       0.5601957115E-01       5    8    1         0.3103858492E+01      0.7590718929E+01
          0                 4           2             4    7     1      -0.8296531070E-01       5    8    1        -0.4705901165E+01      0.1152655298E+02
          0                 5           2             4    7     1       0.1022956898E-02       4    7    1         0.5962433384E-01      0.1460817430E+00
          0                 6           1             4    7     1       0.1504485880E-04       5    8    1         0.8786615711E-03      0.2154489812E-02

    ------------------------------------------------
       NWT REQUIRED            6 OUTER ITERATIONS 
       AND A TOTAL OF         11 INNER ITERATIONS.
    ------------------------------------------------

 OUTPUT CONTROL FOR STRESS PERIOD    5   TIME STEP    6
    PRINT BUDGET
    SAVE BUDGET
 UBDSV1 SAVING "         STORAGE" ON UNIT 102 AT TIME STEP  6, STRESS PERIOD   5
 UBDSV2 SAVING "   CONSTANT HEAD" ON UNIT 102 AT TIME STEP  6, STRESS PERIOD   5
 UBDSV1 SAVING "FLOW RIGHT FACE " ON UNIT 102 AT TIME STEP  6, STRESS PERIOD   5
 UBDSV1 SAVING "FLOW FRONT FACE " ON UNIT 102 AT TIME STEP  6, STRESS PERIOD   5

  HEAD DEP BOUNDS   PERIOD    5   STEP     6
 BOUNDARY      1   LAYER   1   ROW    13   COL     1   RATE   -0.292931    
 BOUNDARY      2   LAYER   1   ROW    14   COL     9   RATE    0.285740    



 STREAM LISTING     PERIOD      5   STEP        6

 LAYER ROW COL. STREAM  RCH.  FLOW INTO     FLOW TO   FLOW OUT OF   OVRLND.     DIRECT     STREAM       STREAM     STREAM     STREAM   STREAMBED  STREAMBED
                SEG.NO.  NO.  STRM. RCH.    AQUIFER    STRM. RCH.    RUNOFF     PRECIP       ET          HEAD       DEPTH      WIDTH   CONDCTNC.   GRADIENT

   1    1    1     1     1    2.1000E+01  2.2592E-01   2.0774E+01  0.000E+00  0.000E+00  0.000E+00  1.09416E+03  1.115E+00  1.220E+01  5.490E-02  1.372E+00
   1    2    2     1     2    2.0774E+01  3.4916E-01   2.0425E+01  0.000E+00  0.000E+00  0.000E+00  1.08917E+03  1.110E+00  1.214E+01  8.495E-02  1.370E+00
   1    3    3     1     3    2.0425E+01  2.9709E-01   2.0128E+01  0.000E+00  0.000E+00  0.000E+00  1.08352E+03  1.105E+00  1.206E+01  7.238E-02  1.368E+00
   1    3    4     1     4    2.0128E+01  2.7299E-01   1.9855E+01  0.000E+00  0.000E+00  0.000E+00  1.07851E+03  1.100E+00  1.200E+01  6.659E-02  1.367E+00
   1    4    5     2     1    1.7855E+01  3.1056E-01   1.7544E+01  0.000E+00  0.000E+00  0.000E+00  1.07292E+03  9.816E-01  1.200E+01  7.800E-02  1.327E+00
   1    5    6     2     2    1.7544E+01  2.3834E-01   1.7306E+01  0.000E+00  0.000E+00  0.000E+00  1.06748E+03  9.724E-01  1.200E+01  6.000E-02  1.324E+00
   1    6    6     2     3    1.7306E+01  2.3787E-01   1.7068E+01  0.000E+00  0.000E+00  0.000E+00  1.06276E+03  9.644E-01  1.200E+01  6.000E-02  1.321E+00
   1    7    6     2     4    1.7068E+01  2.3738E-01   1.6831E+01  0.000E+00  0.000E+00  0.000E+00  1.05803E+03  9.564E-01  1.200E+01  6.000E-02  1.319E+00
   1    8    6     2     5    1.6831E+01  2.3690E-01   1.6594E+01  0.000E+00  0.000E+00  0.000E+00  1.05331E+03  9.483E-01  1.200E+01  6.000E-02  1.316E+00
   1    3    5     3     1    2.0000E+00  2.8252E-01   1.7175E+00  0.000E+00  0.000E+00  0.000E+00  1.07555E+03  1.909E+00  9.636E+00  7.227E-02  1.955E+00
   1    3    6     3     2    1.7175E+00  2.4905E-01   1.4684E+00  0.000E+00  0.000E+00  0.000E+00  1.07264E+03  1.727E+00  8.909E+00  6.682E-02  1.864E+00
   1    3    7     3     3    1.4684E+00  1.9718E-01   1.2712E+00  0.000E+00  0.000E+00  0.000E+00  1.06987E+03  1.555E+00  8.218E+00  5.547E-02  1.777E+00
   1    4    8     3     4    1.2712E+00  2.2567E-01   1.0456E+00  0.000E+00  0.000E+00  0.000E+00  1.06682E+03  1.364E+00  7.455E+00  6.709E-02  1.682E+00
   1    5    8     3     5    1.0456E+00  1.5790E-01   8.8768E-01  0.000E+00  0.000E+00  0.000E+00  1.06362E+03  1.164E+00  6.655E+00  4.991E-02  1.582E+00
   1    6    8     3     6    8.8768E-01  5.5980E-02   8.3170E-01  0.000E+00  0.000E+00  0.000E+00  1.06158E+03  1.036E+00  6.145E+00  1.844E-02  1.518E+00
   1    5   10     4     1    1.0000E+01  9.0919E-02   9.9091E+00  0.000E+00  0.000E+00  0.000E+00  1.07836E+03  6.368E-01  1.000E+01  2.500E-02  1.212E+00
   1    5    9     4     2    9.9091E+00  1.8158E-01   9.7275E+00  0.000E+00  0.000E+00  0.000E+00  1.07154E+03  6.315E-01  1.000E+01  5.000E-02  1.211E+00
   1    6    8     4     3    9.7275E+00  1.2689E-01   9.6006E+00  0.000E+00  0.000E+00  0.000E+00  1.06381E+03  6.256E-01  1.000E+01  3.500E-02  1.209E+00
   1    6    8     5     1    1.0432E+01  2.2686E-01   1.0205E+01  0.000E+00  0.000E+00  0.000E+00  1.05868E+03  6.790E-01  1.542E+01  6.166E-02  1.226E+00
   1    7    7     5     2    1.0205E+01  2.7894E-01   9.9265E+00  0.000E+00  0.000E+00  0.000E+00  1.05417E+03  6.732E-01  1.519E+01  7.594E-02  1.224E+00
   1    8    7     5     3    9.9265E+00  1.9221E-01   9.7343E+00  0.000E+00  0.000E+00  0.000E+00  1.04992E+03  6.676E-01  1.497E+01  5.241E-02  1.223E+00
   1    8    6     5     4    9.7343E+00  1.3577E-01   9.5985E+00  0.000E+00  0.000E+00  0.000E+00  1.04691E+03  6.637E-01  1.482E+01  3.706E-02  1.221E+00
   1    9    6     6     1    9.5985E+00  2.2097E-01   9.3776E+00  0.000E+00  0.000E+00  0.000E+00  1.04341E+03  6.828E-01  1.200E+01  6.000E-02  1.228E+00
   1   10    7     6     2    9.3776E+00  2.2039E-01   9.1572E+00  0.000E+00  0.000E+00  0.000E+00  1.03885E+03  6.732E-01  1.200E+01  6.000E-02  1.224E+00
   1   11    7     6     3    9.1572E+00  2.1981E-01   8.9374E+00  0.000E+00  0.000E+00  0.000E+00  1.03430E+03  6.636E-01  1.200E+01  6.000E-02  1.221E+00
   1   12    7     6     4    8.9374E+00  2.1923E-01   8.7181E+00  0.000E+00  0.000E+00  0.000E+00  1.02974E+03  6.539E-01  1.200E+01  6.000E-02  1.218E+00
   1   13    7     6     5    8.7181E+00 -1.3454E-01   8.8527E+00  0.000E+00  0.000E+00  0.000E+00  1.02656E+03  6.520E-01  1.200E+01  2.400E-01 -1.869E-01
   1   14    9     7     1    1.5000E+02  1.3355E+00   1.4866E+02  0.000E+00  0.000E+00  0.000E+00  1.03987E+03  2.288E+00  5.529E+01  5.593E-01  7.960E-01
   1   13    8     7     2    1.4866E+02  1.8264E+00   1.4684E+02  0.000E+00  0.000E+00  0.000E+00  1.03478E+03  2.279E+00  5.526E+01  6.148E-01  9.903E-01
   1   13    7     7     3    1.4684E+02  1.4343E+00   1.4540E+02  0.000E+00  0.000E+00  0.000E+00  1.02969E+03  2.271E+00  5.522E+01  5.585E-01  8.561E-01
   1   13    6     8     1    1.5426E+02  7.8439E-01   1.5347E+02  0.000E+00  0.000E+00  0.000E+00  1.02472E+03  2.844E+00  4.124E+01  4.202E-01  6.222E-01
   1   13    5     8     2    1.5347E+02  5.6823E-02   1.5342E+02  0.000E+00  0.000E+00  0.000E+00  1.01847E+03  2.841E+00  4.119E+01  4.198E-01  4.512E-02
   1   13    4     8     3    1.5342E+02 -3.1817E+00   1.5660E+02  0.000E+00  0.000E+00  0.000E+00  1.01223E+03  2.852E+00  4.135E+01  4.214E+00 -2.517E-01
   1   13    3     8     4    1.5660E+02 -4.2594E+00   1.6086E+02  0.000E+00  0.000E+00  0.000E+00  1.00600E+03  2.877E+00  4.172E+01  4.251E+00 -3.340E-01
   1   13    2     8     5    1.6086E+02 -3.2050E+00   1.6406E+02  0.000E+00  0.000E+00  0.000E+00  9.99777E+02  2.902E+00  4.208E+01  4.289E+00 -2.491E-01
   1   13    1     8     6    1.6406E+02 -2.3637E+00   1.6643E+02  0.000E+00  0.000E+00  0.000E+00  9.94796E+02  2.921E+00  4.235E+01  2.590E+00 -3.043E-01
   1    8    6     9     1    1.6594E+01  0.0000E+00   1.6594E+01  0.000E+00  0.000E+00  0.000E+00  1.08182E+03  3.071E+00  4.000E+00  0.000E+00  2.024E+00
   1    8    5     9     2    1.6594E+01  0.0000E+00   1.6594E+01  0.000E+00  0.000E+00  0.000E+00  1.08132E+03  3.071E+00  4.000E+00  0.000E+00  2.024E+00



 UBDSV3 SAVING "           GW ET" ON UNIT  61 AT TIME STEP  6, STRESS PERIOD   5
 UBDSV3 SAVING "    UZF RECHARGE" ON UNIT  61 AT TIME STEP  6, STRESS PERIOD   5
 UBDSV3 SAVING " SURFACE LEAKAGE" ON UNIT  61 AT TIME STEP  6, STRESS PERIOD   5
 UBDSV3 SAVING "       HORT+DUNN" ON UNIT  61 AT TIME STEP  6, STRESS PERIOD   5
 UBDSV3 SAVING "  STORAGE CHANGE" ON UNIT  61 AT TIME STEP  6, STRESS PERIOD   5


UNSATURATED ZONE PACKAGE VOLUMETRIC BUDGET FOR  TIME STEP     6 STRESS PERIOD    5
  ------------------------------------------------------------------------------



     CUMULATIVE VOLUMES      L**3       RATES FOR THIS TIME STEP      L**3/T
     ------------------                 ------------------------

           IN:                                      IN:
           ---                                      ---
        INFILTRATION =    74249261.9685          INFILTRATION =          55.7955

          OUT:                                     OUT:
          ----                                     ----
              UZF ET =     9005469.9094                UZF ET =           4.5675
        UZF RECHARGE =       73224.0000          UZF RECHARGE =       0.0000E+00

            IN - OUT =    65170568.0591              IN - OUT =          51.2280

          STORAGE:                                 STORAGE:
          --------                                 --------
      STORAGE CHANGE =    65170365.9731        STORAGE CHANGE =          51.2280

 PERCENT DISCREPANCY IS DIFFERENCE BETWEEN IN-OUT MINUS CHANGE IN STORAGE
 DIVIDED BY THE AVERAGE OF IN AND OUT TIMES 100

 PERCENT DISCREPANCY =           0.00     PERCENT DISCREPANCY =           0.00






 

        AG WELLS          PERIOD    5   STEP   6
 AG WELL      1   LAYER   1   ROW     6   COL     4   RATE    -6.39230    
 AG WELL      2   LAYER   1   ROW     6   COL     5   RATE    -6.39230    
 AG WELL      3   LAYER   1   ROW     7   COL     4   RATE    -6.39230    
 AG WELL      4   LAYER   1   ROW     7   COL     5   RATE    -6.39230    
 AG WELL      5   LAYER   1   ROW     8   COL     4   RATE    -6.39230    
 AG WELL      6   LAYER   1   ROW     8   COL     5   RATE    -6.39230    
 
 

   DIVERSION SEGMENTS     PERIOD    5   STEP   6
 SEGMENT      9   RATE     16.5939    
 
 

        SW IRRIGATION     PERIOD    5   STEP   6
 SEGMENT      9   ROW     6   COL     4   RATE     2.76570    
 SEGMENT      9   ROW     6   COL     5   RATE     2.76570    
 SEGMENT      9   ROW     7   COL     4   RATE     2.76570    
 SEGMENT      9   ROW     7   COL     5   RATE     2.76570    
 SEGMENT      9   ROW     8   COL     4   RATE     2.76570    
 SEGMENT      9   ROW     8   COL     5   RATE     2.76570    
 
 

        GW IRRIGATION     PERIOD    5   STEP   6
 AG WELL      1   ROW     6   COL     4   RATE     6.39230    
 AG WELL      2   ROW     6   COL     5   RATE     6.39230    
 AG WELL      3   ROW     7   COL     4   RATE     6.39230    
 AG WELL      4   ROW     7   COL     5   RATE     6.39230    
 AG WELL      5   ROW     8   COL     4   RATE     6.39230    
 AG WELL      6   ROW     8   COL     5   RATE     6.39230    
 
1
  VOLUMETRIC BUDGET FOR AGRICULTURAL FIELDS AT  END OF TIME STEP    6, STRESS PERIOD   5
  ------------------------------------------------------------------------------

     CUMULATIVE VOLUMES      L**3       RATES FOR THIS TIME STEP      L**3/T
     ------------------                 ------------------------

           IN:                                      IN:
           ---                                      ---
           AG WELLS      =    58314988.0000             AG WELLS      =          38.3538
      DIVERSION SEGMENTS =     8728321.0000        DIVERSION SEGMENTS =          16.5939
           GW IRRIGATION =           0.0000             GW IRRIGATION =           0.0000
           SW IRRIGATION =           0.0000             SW IRRIGATION =           0.0000
        SYSTEM LOSSES GW =           0.0000          SYSTEM LOSSES GW =           0.0000
        SYSTEM LOSSES SW =           0.0000          SYSTEM LOSSES SW =           0.0000

                TOTAL IN =    67043308.0000                  TOTAL IN =          54.9477

          OUT:                                     OUT:
          ----                                     ----
           AG WELLS      =           0.0000             AG WELLS      =           0.0000
      DIVERSION SEGMENTS =           0.0000        DIVERSION SEGMENTS =           0.0000
           GW IRRIGATION =    58314988.0000             GW IRRIGATION =          38.3538
           SW IRRIGATION =     8728495.0000             SW IRRIGATION =          16.5942
        SYSTEM LOSSES GW =           0.0000          SYSTEM LOSSES GW =           0.0000
        SYSTEM LOSSES SW =           0.0000          SYSTEM LOSSES SW =           0.0000

               TOTAL OUT =    67043484.0000                 TOTAL OUT =          54.9480

                IN - OUT =        -176.0000                  IN - OUT =      -3.3188E-04

     PERCENT DISCREPANCY =          -0.00         PERCENT DISCREPANCY =          -0.00



1
  VOLUMETRIC BUDGET FOR ENTIRE MODEL AT END OF TIME STEP    6, STRESS PERIOD   5
  ------------------------------------------------------------------------------

     CUMULATIVE VOLUMES      L**3       RATES FOR THIS TIME STEP      L**3/T
     ------------------                 ------------------------

           IN:                                      IN:
           ---                                      ---
             STORAGE     =    64445548.0000               STORAGE     =          41.1225
       CONSTANT HEAD     =           0.0000         CONSTANT HEAD     =           0.0000
     HEAD DEP BOUNDS     =     2429027.2500       HEAD DEP BOUNDS     =           0.2857
      STREAM LEAKAGE     =   101740504.0000        STREAM LEAKAGE     =          11.1255
        UZF RECHARGE     =       73223.9531          UZF RECHARGE     =           0.0000
               GW ET     =           0.0000                 GW ET     =           0.0000
     SURFACE LEAKAGE     =           0.0000       SURFACE LEAKAGE     =           0.0000
           AG WELLS      =           0.0000             AG WELLS      =           0.0000

                TOTAL IN =   168688288.0000                  TOTAL IN =          52.5338

          OUT:                                     OUT:
          ----                                     ----
             STORAGE     =    18492396.0000               STORAGE     =           0.7376
       CONSTANT HEAD     =           0.0000         CONSTANT HEAD     =           0.0000
     HEAD DEP BOUNDS     =     2471056.2500       HEAD DEP BOUNDS     =           0.2929
      STREAM LEAKAGE     =    89379176.0000        STREAM LEAKAGE     =          13.1443
        UZF RECHARGE     =           0.0000          UZF RECHARGE     =           0.0000
               GW ET     =       34549.5586                 GW ET     =       5.0776E-03
     SURFACE LEAKAGE     =           0.0000       SURFACE LEAKAGE     =           0.0000
           AG WELLS      =    58314988.0000             AG WELLS      =          38.3538

               TOTAL OUT =   168692160.0000                 TOTAL OUT =          52.5337

                IN - OUT =       -3872.0000                  IN - OUT =       7.6294E-05

     PERCENT DISCREPANCY =          -0.00         PERCENT DISCREPANCY =           0.00






         TIME SUMMARY AT END OF TIME STEP    6 IN STRESS PERIOD    5
                    SECONDS     MINUTES      HOURS       DAYS        YEARS
                    -----------------------------------------------------------
   TIME STEP LENGTH  87667.      1461.1      24.352      1.0147     2.77799E-03
 STRESS PERIOD TIME 5.26000E+05  8766.7      146.11      6.0880     1.66679E-02
         TOTAL TIME 8.50239E+06 1.41707E+05  2361.8      98.407     0.26942    
1
 
 SOLVING FOR HEAD 
                                                   Max.-Head-Change                         Max.-Flux-Residual
  Residual-Control   Outer-Iter.   Inner-Iter.     Column Row Layer    Maximum-Head-Change  Column Row Layer    Maximum-Flux-Residual          L2-NORM 
          0                 1           2             5    8     1       0.4689937429E-01       5    8    1         0.2578466398E+01      0.5757359705E+01
          0                 2           2             5    6     1      -0.8777242798E-01       5    8    1        -0.4836831560E+01      0.1167856892E+02
          0                 3           2             4    7     1       0.5602796298E-01       5    8    1         0.3104219908E+01      0.7591771158E+01
          0                 4           2             4    7     1      -0.8296583509E-01       5    8    1        -0.4705915540E+01      0.1152659489E+02
          0                 5           2             4    7     1       0.1022963363E-02       4    7    1         0.5962456641E-01      0.1460822358E+00
          0                 6           1             4    7     1       0.1504495390E-04       5    8    1         0.8786641276E-03      0.2154495174E-02

    ------------------------------------------------
       NWT REQUIRED            6 OUTER ITERATIONS 
       AND A TOTAL OF         11 INNER ITERATIONS.
    ------------------------------------------------

 OUTPUT CONTROL FOR STRESS PERIOD    5   TIME STEP    7
    PRINT BUDGET
    SAVE BUDGET
 UBDSV1 SAVING "         STORAGE" ON UNIT 102 AT TIME STEP  7, STRESS PERIOD   5
 UBDSV2 SAVING "   CONSTANT HEAD" ON UNIT 102 AT TIME STEP  7, STRESS PERIOD   5
 UBDSV1 SAVING "FLOW RIGHT FACE " ON UNIT 102 AT TIME STEP  7, STRESS PERIOD   5
 UBDSV1 SAVING "FLOW FRONT FACE " ON UNIT 102 AT TIME STEP  7, STRESS PERIOD   5

  HEAD DEP BOUNDS   PERIOD    5   STEP     7
 BOUNDARY      1   LAYER   1   ROW    13   COL     1   RATE   -0.292675    
 BOUNDARY      2   LAYER   1   ROW    14   COL     9   RATE    0.285741    



 STREAM LISTING     PERIOD      5   STEP        7

 LAYER ROW COL. STREAM  RCH.  FLOW INTO     FLOW TO   FLOW OUT OF   OVRLND.     DIRECT     STREAM       STREAM     STREAM     STREAM   STREAMBED  STREAMBED
                SEG.NO.  NO.  STRM. RCH.    AQUIFER    STRM. RCH.    RUNOFF     PRECIP       ET          HEAD       DEPTH      WIDTH   CONDCTNC.   GRADIENT

   1    1    1     1     1    2.1000E+01  2.2592E-01   2.0774E+01  0.000E+00  0.000E+00  0.000E+00  1.09416E+03  1.115E+00  1.220E+01  5.490E-02  1.372E+00
   1    2    2     1     2    2.0774E+01  3.4916E-01   2.0425E+01  0.000E+00  0.000E+00  0.000E+00  1.08917E+03  1.110E+00  1.214E+01  8.495E-02  1.370E+00
   1    3    3     1     3    2.0425E+01  2.9709E-01   2.0128E+01  0.000E+00  0.000E+00  0.000E+00  1.08352E+03  1.105E+00  1.206E+01  7.238E-02  1.368E+00
   1    3    4     1     4    2.0128E+01  2.7299E-01   1.9855E+01  0.000E+00  0.000E+00  0.000E+00  1.07851E+03  1.100E+00  1.200E+01  6.659E-02  1.367E+00
   1    4    5     2     1    1.7855E+01  3.1056E-01   1.7544E+01  0.000E+00  0.000E+00  0.000E+00  1.07292E+03  9.816E-01  1.200E+01  7.800E-02  1.327E+00
   1    5    6     2     2    1.7544E+01  2.3834E-01   1.7306E+01  0.000E+00  0.000E+00  0.000E+00  1.06748E+03  9.724E-01  1.200E+01  6.000E-02  1.324E+00
   1    6    6     2     3    1.7306E+01  2.3787E-01   1.7068E+01  0.000E+00  0.000E+00  0.000E+00  1.06276E+03  9.644E-01  1.200E+01  6.000E-02  1.321E+00
   1    7    6     2     4    1.7068E+01  2.3738E-01   1.6831E+01  0.000E+00  0.000E+00  0.000E+00  1.05803E+03  9.564E-01  1.200E+01  6.000E-02  1.319E+00
   1    8    6     2     5    1.6831E+01  2.3690E-01   1.6594E+01  0.000E+00  0.000E+00  0.000E+00  1.05331E+03  9.483E-01  1.200E+01  6.000E-02  1.316E+00
   1    3    5     3     1    2.0000E+00  2.8252E-01   1.7175E+00  0.000E+00  0.000E+00  0.000E+00  1.07555E+03  1.909E+00  9.636E+00  7.227E-02  1.955E+00
   1    3    6     3     2    1.7175E+00  2.4905E-01   1.4684E+00  0.000E+00  0.000E+00  0.000E+00  1.07264E+03  1.727E+00  8.909E+00  6.682E-02  1.864E+00
   1    3    7     3     3    1.4684E+00  1.9718E-01   1.2712E+00  0.000E+00  0.000E+00  0.000E+00  1.06987E+03  1.555E+00  8.218E+00  5.547E-02  1.777E+00
   1    4    8     3     4    1.2712E+00  2.2567E-01   1.0456E+00  0.000E+00  0.000E+00  0.000E+00  1.06682E+03  1.364E+00  7.455E+00  6.709E-02  1.682E+00
   1    5    8     3     5    1.0456E+00  1.5790E-01   8.8768E-01  0.000E+00  0.000E+00  0.000E+00  1.06362E+03  1.164E+00  6.655E+00  4.991E-02  1.582E+00
   1    6    8     3     6    8.8768E-01  5.5980E-02   8.3170E-01  0.000E+00  0.000E+00  0.000E+00  1.06158E+03  1.036E+00  6.145E+00  1.844E-02  1.518E+00
   1    5   10     4     1    1.0000E+01  9.0919E-02   9.9091E+00  0.000E+00  0.000E+00  0.000E+00  1.07836E+03  6.368E-01  1.000E+01  2.500E-02  1.212E+00
   1    5    9     4     2    9.9091E+00  1.8158E-01   9.7275E+00  0.000E+00  0.000E+00  0.000E+00  1.07154E+03  6.315E-01  1.000E+01  5.000E-02  1.211E+00
   1    6    8     4     3    9.7275E+00  1.2689E-01   9.6006E+00  0.000E+00  0.000E+00  0.000E+00  1.06381E+03  6.256E-01  1.000E+01  3.500E-02  1.209E+00
   1    6    8     5     1    1.0432E+01  2.2686E-01   1.0205E+01  0.000E+00  0.000E+00  0.000E+00  1.05868E+03  6.790E-01  1.542E+01  6.166E-02  1.226E+00
   1    7    7     5     2    1.0205E+01  2.7894E-01   9.9265E+00  0.000E+00  0.000E+00  0.000E+00  1.05417E+03  6.732E-01  1.519E+01  7.594E-02  1.224E+00
   1    8    7     5     3    9.9265E+00  1.9221E-01   9.7343E+00  0.000E+00  0.000E+00  0.000E+00  1.04992E+03  6.676E-01  1.497E+01  5.241E-02  1.223E+00
   1    8    6     5     4    9.7343E+00  1.3577E-01   9.5985E+00  0.000E+00  0.000E+00  0.000E+00  1.04691E+03  6.637E-01  1.482E+01  3.706E-02  1.221E+00
   1    9    6     6     1    9.5985E+00  2.2097E-01   9.3776E+00  0.000E+00  0.000E+00  0.000E+00  1.04341E+03  6.828E-01  1.200E+01  6.000E-02  1.228E+00
   1   10    7     6     2    9.3776E+00  2.2039E-01   9.1572E+00  0.000E+00  0.000E+00  0.000E+00  1.03885E+03  6.732E-01  1.200E+01  6.000E-02  1.224E+00
   1   11    7     6     3    9.1572E+00  2.1981E-01   8.9374E+00  0.000E+00  0.000E+00  0.000E+00  1.03430E+03  6.636E-01  1.200E+01  6.000E-02  1.221E+00
   1   12    7     6     4    8.9374E+00  2.1923E-01   8.7181E+00  0.000E+00  0.000E+00  0.000E+00  1.02974E+03  6.539E-01  1.200E+01  6.000E-02  1.218E+00
   1   13    7     6     5    8.7181E+00 -1.3416E-01   8.8523E+00  0.000E+00  0.000E+00  0.000E+00  1.02656E+03  6.520E-01  1.200E+01  2.400E-01 -1.863E-01
   1   14    9     7     1    1.5000E+02  1.3356E+00   1.4866E+02  0.000E+00  0.000E+00  0.000E+00  1.03987E+03  2.288E+00  5.529E+01  5.593E-01  7.960E-01
   1   13    8     7     2    1.4866E+02  1.8263E+00   1.4684E+02  0.000E+00  0.000E+00  0.000E+00  1.03478E+03  2.279E+00  5.526E+01  6.148E-01  9.902E-01
   1   13    7     7     3    1.4684E+02  1.4352E+00   1.4540E+02  0.000E+00  0.000E+00  0.000E+00  1.02969E+03  2.271E+00  5.522E+01  5.585E-01  8.566E-01
   1   13    6     8     1    1.5426E+02  7.8532E-01   1.5347E+02  0.000E+00  0.000E+00  0.000E+00  1.02472E+03  2.844E+00  4.124E+01  4.202E-01  6.230E-01
   1   13    5     8     2    1.5347E+02  5.7634E-02   1.5341E+02  0.000E+00  0.000E+00  0.000E+00  1.01847E+03  2.841E+00  4.119E+01  4.198E-01  4.577E-02
   1   13    4     8     3    1.5341E+02 -3.1434E+00   1.5656E+02  0.000E+00  0.000E+00  0.000E+00  1.01223E+03  2.852E+00  4.135E+01  4.213E+00 -2.487E-01
   1   13    3     8     4    1.5656E+02 -4.2230E+00   1.6078E+02  0.000E+00  0.000E+00  0.000E+00  1.00600E+03  2.877E+00  4.171E+01  4.251E+00 -3.312E-01
   1   13    2     8     5    1.6078E+02 -3.1632E+00   1.6394E+02  0.000E+00  0.000E+00  0.000E+00  9.99777E+02  2.902E+00  4.208E+01  4.288E+00 -2.459E-01
   1   13    1     8     6    1.6394E+02 -2.3478E+00   1.6629E+02  0.000E+00  0.000E+00  0.000E+00  9.94795E+02  2.920E+00  4.234E+01  2.589E+00 -3.023E-01
   1    8    6     9     1    1.6594E+01  0.0000E+00   1.6594E+01  0.000E+00  0.000E+00  0.000E+00  1.08182E+03  3.071E+00  4.000E+00  0.000E+00  2.024E+00
   1    8    5     9     2    1.6594E+01  0.0000E+00   1.6594E+01  0.000E+00  0.000E+00  0.000E+00  1.08132E+03  3.071E+00  4.000E+00  0.000E+00  2.024E+00



 UBDSV3 SAVING "           GW ET" ON UNIT  61 AT TIME STEP  7, STRESS PERIOD   5
 UBDSV3 SAVING "    UZF RECHARGE" ON UNIT  61 AT TIME STEP  7, STRESS PERIOD   5
 UBDSV3 SAVING " SURFACE LEAKAGE" ON UNIT  61 AT TIME STEP  7, STRESS PERIOD   5
 UBDSV3 SAVING "       HORT+DUNN" ON UNIT  61 AT TIME STEP  7, STRESS PERIOD   5
 UBDSV3 SAVING "  STORAGE CHANGE" ON UNIT  61 AT TIME STEP  7, STRESS PERIOD   5


UNSATURATED ZONE PACKAGE VOLUMETRIC BUDGET FOR  TIME STEP     7 STRESS PERIOD    5
  ------------------------------------------------------------------------------



     CUMULATIVE VOLUMES      L**3       RATES FOR THIS TIME STEP      L**3/T
     ------------------                 ------------------------

           IN:                                      IN:
           ---                                      ---
        INFILTRATION =    79140682.9644          INFILTRATION =          55.7957

          OUT:                                     OUT:
          ----                                     ----
              UZF ET =     9405887.3896                UZF ET =           4.5675
        UZF RECHARGE =       73224.0000          UZF RECHARGE =       0.0000E+00

            IN - OUT =    69661571.5748              IN - OUT =          51.2282

          STORAGE:                                 STORAGE:
          --------                                 --------
      STORAGE CHANGE =    69661369.5115        STORAGE CHANGE =          51.2282

 PERCENT DISCREPANCY IS DIFFERENCE BETWEEN IN-OUT MINUS CHANGE IN STORAGE
 DIVIDED BY THE AVERAGE OF IN AND OUT TIMES 100

 PERCENT DISCREPANCY =           0.00     PERCENT DISCREPANCY =           0.00






 

        AG WELLS          PERIOD    5   STEP   7
 AG WELL      1   LAYER   1   ROW     6   COL     4   RATE    -6.39233    
 AG WELL      2   LAYER   1   ROW     6   COL     5   RATE    -6.39233    
 AG WELL      3   LAYER   1   ROW     7   COL     4   RATE    -6.39233    
 AG WELL      4   LAYER   1   ROW     7   COL     5   RATE    -6.39233    
 AG WELL      5   LAYER   1   ROW     8   COL     4   RATE    -6.39233    
 AG WELL      6   LAYER   1   ROW     8   COL     5   RATE    -6.39233    
 
 

   DIVERSION SEGMENTS     PERIOD    5   STEP   7
 SEGMENT      9   RATE     16.5939    
 
 

        SW IRRIGATION     PERIOD    5   STEP   7
 SEGMENT      9   ROW     6   COL     4   RATE     2.76570    
 SEGMENT      9   ROW     6   COL     5   RATE     2.76570    
 SEGMENT      9   ROW     7   COL     4   RATE     2.76570    
 SEGMENT      9   ROW     7   COL     5   RATE     2.76570    
 SEGMENT      9   ROW     8   COL     4   RATE     2.76570    
 SEGMENT      9   ROW     8   COL     5   RATE     2.76570    
 
 

        GW IRRIGATION     PERIOD    5   STEP   7
 AG WELL      1   ROW     6   COL     4   RATE     6.39233    
 AG WELL      2   ROW     6   COL     5   RATE     6.39233    
 AG WELL      3   ROW     7   COL     4   RATE     6.39233    
 AG WELL      4   ROW     7   COL     5   RATE     6.39233    
 AG WELL      5   ROW     8   COL     4   RATE     6.39233    
 AG WELL      6   ROW     8   COL     5   RATE     6.39233    
 
1
  VOLUMETRIC BUDGET FOR AGRICULTURAL FIELDS AT  END OF TIME STEP    7, STRESS PERIOD   5
  ------------------------------------------------------------------------------

     CUMULATIVE VOLUMES      L**3       RATES FOR THIS TIME STEP      L**3/T
     ------------------                 ------------------------

           IN:                                      IN:
           ---                                      ---
           AG WELLS      =    61677356.0000             AG WELLS      =          38.3540
      DIVERSION SEGMENTS =    10183050.0000        DIVERSION SEGMENTS =          16.5939
           GW IRRIGATION =           0.0000             GW IRRIGATION =           0.0000
           SW IRRIGATION =           0.0000             SW IRRIGATION =           0.0000
        SYSTEM LOSSES GW =           0.0000          SYSTEM LOSSES GW =           0.0000
        SYSTEM LOSSES SW =           0.0000          SYSTEM LOSSES SW =           0.0000

                TOTAL IN =    71860408.0000                  TOTAL IN =          54.9479

          OUT:                                     OUT:
          ----                                     ----
           AG WELLS      =           0.0000             AG WELLS      =           0.0000
      DIVERSION SEGMENTS =           0.0000        DIVERSION SEGMENTS =           0.0000
           GW IRRIGATION =    61677356.0000             GW IRRIGATION =          38.3540
           SW IRRIGATION =    10183252.0000             SW IRRIGATION =          16.5942
        SYSTEM LOSSES GW =           0.0000          SYSTEM LOSSES GW =           0.0000
        SYSTEM LOSSES SW =           0.0000          SYSTEM LOSSES SW =           0.0000

               TOTAL OUT =    71860608.0000                 TOTAL OUT =          54.9482

                IN - OUT =        -200.0000                  IN - OUT =      -3.2806E-04

     PERCENT DISCREPANCY =          -0.00         PERCENT DISCREPANCY =          -0.00



1
  VOLUMETRIC BUDGET FOR ENTIRE MODEL AT END OF TIME STEP    7, STRESS PERIOD   5
  ------------------------------------------------------------------------------

     CUMULATIVE VOLUMES      L**3       RATES FOR THIS TIME STEP      L**3/T
     ------------------                 ------------------------

           IN:                                      IN:
           ---                                      ---
             STORAGE     =    68035072.0000               STORAGE     =          40.9452
       CONSTANT HEAD     =           0.0000         CONSTANT HEAD     =           0.0000
     HEAD DEP BOUNDS     =     2454077.2500       HEAD DEP BOUNDS     =           0.2857
      STREAM LEAKAGE     =   102716064.0000        STREAM LEAKAGE     =          11.1281
        UZF RECHARGE     =       73223.9531          UZF RECHARGE     =           0.0000
               GW ET     =           0.0000                 GW ET     =           0.0000
     SURFACE LEAKAGE     =           0.0000       SURFACE LEAKAGE     =           0.0000
           AG WELLS      =           0.0000             AG WELLS      =           0.0000

                TOTAL IN =   173278432.0000                  TOTAL IN =          52.3590

          OUT:                                     OUT:
          ----                                     ----
             STORAGE     =    18553826.0000               STORAGE     =           0.7007
       CONSTANT HEAD     =           0.0000         CONSTANT HEAD     =           0.0000
     HEAD DEP BOUNDS     =     2496714.2500       HEAD DEP BOUNDS     =           0.2927
      STREAM LEAKAGE     =    90519856.0000        STREAM LEAKAGE     =          13.0115
        UZF RECHARGE     =           0.0000          UZF RECHARGE     =           0.0000
               GW ET     =       34549.5586                 GW ET     =           0.0000
     SURFACE LEAKAGE     =           0.0000       SURFACE LEAKAGE     =           0.0000
           AG WELLS      =    61677356.0000             AG WELLS      =          38.3540

               TOTAL OUT =   173282304.0000                 TOTAL OUT =          52.3589

                IN - OUT =       -3872.0000                  IN - OUT =       7.2479E-05

     PERCENT DISCREPANCY =          -0.00         PERCENT DISCREPANCY =           0.00






         TIME SUMMARY AT END OF TIME STEP    7 IN STRESS PERIOD    5
                    SECONDS     MINUTES      HOURS       DAYS        YEARS
                    -----------------------------------------------------------
   TIME STEP LENGTH  87667.      1461.1      24.352      1.0147     2.77799E-03
 STRESS PERIOD TIME 6.13667E+05  10228.      170.46      7.1026     1.94459E-02
         TOTAL TIME 8.59006E+06 1.43168E+05  2386.1      99.422     0.27220    
1
 
 SOLVING FOR HEAD 
                                                   Max.-Head-Change                         Max.-Flux-Residual
  Residual-Control   Outer-Iter.   Inner-Iter.     Column Row Layer    Maximum-Head-Change  Column Row Layer    Maximum-Flux-Residual          L2-NORM 
          0                 1           2             5    8     1       0.4783289951E-01       5    8    1         0.2628356513E+01      0.5892664209E+01
          0                 2           2             5    6     1      -0.8786558701E-01       5    8    1        -0.4841820476E+01      0.1169372924E+02
          0                 3           2             4    7     1       0.5603624508E-01       5    8    1         0.3104569145E+01      0.7592791792E+01
          0                 4           2             4    7     1      -0.8296636325E-01       5    8    1        -0.4705929890E+01      0.1152663670E+02
          0                 5           2             4    7     1       0.1022969874E-02       4    7    1         0.5962480203E-01      0.1460827291E+00
          0                 6           1             4    7     1       0.1504504979E-04       5    8    1         0.8786666974E-03      0.2154500944E-02

    ------------------------------------------------
       NWT REQUIRED            6 OUTER ITERATIONS 
       AND A TOTAL OF         11 INNER ITERATIONS.
    ------------------------------------------------

 OUTPUT CONTROL FOR STRESS PERIOD    5   TIME STEP    8
    PRINT BUDGET
    SAVE BUDGET
 UBDSV1 SAVING "         STORAGE" ON UNIT 102 AT TIME STEP  8, STRESS PERIOD   5
 UBDSV2 SAVING "   CONSTANT HEAD" ON UNIT 102 AT TIME STEP  8, STRESS PERIOD   5
 UBDSV1 SAVING "FLOW RIGHT FACE " ON UNIT 102 AT TIME STEP  8, STRESS PERIOD   5
 UBDSV1 SAVING "FLOW FRONT FACE " ON UNIT 102 AT TIME STEP  8, STRESS PERIOD   5

  HEAD DEP BOUNDS   PERIOD    5   STEP     8
 BOUNDARY      1   LAYER   1   ROW    13   COL     1   RATE   -0.292430    
 BOUNDARY      2   LAYER   1   ROW    14   COL     9   RATE    0.285742    



 STREAM LISTING     PERIOD      5   STEP        8

 LAYER ROW COL. STREAM  RCH.  FLOW INTO     FLOW TO   FLOW OUT OF   OVRLND.     DIRECT     STREAM       STREAM     STREAM     STREAM   STREAMBED  STREAMBED
                SEG.NO.  NO.  STRM. RCH.    AQUIFER    STRM. RCH.    RUNOFF     PRECIP       ET          HEAD       DEPTH      WIDTH   CONDCTNC.   GRADIENT

   1    1    1     1     1    2.1000E+01  2.2592E-01   2.0774E+01  0.000E+00  0.000E+00  0.000E+00  1.09416E+03  1.115E+00  1.220E+01  5.490E-02  1.372E+00
   1    2    2     1     2    2.0774E+01  3.4916E-01   2.0425E+01  0.000E+00  0.000E+00  0.000E+00  1.08917E+03  1.110E+00  1.214E+01  8.495E-02  1.370E+00
   1    3    3     1     3    2.0425E+01  2.9709E-01   2.0128E+01  0.000E+00  0.000E+00  0.000E+00  1.08352E+03  1.105E+00  1.206E+01  7.238E-02  1.368E+00
   1    3    4     1     4    2.0128E+01  2.7299E-01   1.9855E+01  0.000E+00  0.000E+00  0.000E+00  1.07851E+03  1.100E+00  1.200E+01  6.659E-02  1.367E+00
   1    4    5     2     1    1.7855E+01  3.1056E-01   1.7544E+01  0.000E+00  0.000E+00  0.000E+00  1.07292E+03  9.816E-01  1.200E+01  7.800E-02  1.327E+00
   1    5    6     2     2    1.7544E+01  2.3834E-01   1.7306E+01  0.000E+00  0.000E+00  0.000E+00  1.06748E+03  9.724E-01  1.200E+01  6.000E-02  1.324E+00
   1    6    6     2     3    1.7306E+01  2.3787E-01   1.7068E+01  0.000E+00  0.000E+00  0.000E+00  1.06276E+03  9.644E-01  1.200E+01  6.000E-02  1.321E+00
   1    7    6     2     4    1.7068E+01  2.3738E-01   1.6831E+01  0.000E+00  0.000E+00  0.000E+00  1.05803E+03  9.564E-01  1.200E+01  6.000E-02  1.319E+00
   1    8    6     2     5    1.6831E+01  2.3690E-01   1.6594E+01  0.000E+00  0.000E+00  0.000E+00  1.05331E+03  9.483E-01  1.200E+01  6.000E-02  1.316E+00
   1    3    5     3     1    2.0000E+00  2.8252E-01   1.7175E+00  0.000E+00  0.000E+00  0.000E+00  1.07555E+03  1.909E+00  9.636E+00  7.227E-02  1.955E+00
   1    3    6     3     2    1.7175E+00  2.4905E-01   1.4684E+00  0.000E+00  0.000E+00  0.000E+00  1.07264E+03  1.727E+00  8.909E+00  6.682E-02  1.864E+00
   1    3    7     3     3    1.4684E+00  1.9718E-01   1.2712E+00  0.000E+00  0.000E+00  0.000E+00  1.06987E+03  1.555E+00  8.218E+00  5.547E-02  1.777E+00
   1    4    8     3     4    1.2712E+00  2.2567E-01   1.0456E+00  0.000E+00  0.000E+00  0.000E+00  1.06682E+03  1.364E+00  7.455E+00  6.709E-02  1.682E+00
   1    5    8     3     5    1.0456E+00  1.5790E-01   8.8768E-01  0.000E+00  0.000E+00  0.000E+00  1.06362E+03  1.164E+00  6.655E+00  4.991E-02  1.582E+00
   1    6    8     3     6    8.8768E-01  5.5980E-02   8.3170E-01  0.000E+00  0.000E+00  0.000E+00  1.06158E+03  1.036E+00  6.145E+00  1.844E-02  1.518E+00
   1    5   10     4     1    1.0000E+01  9.0919E-02   9.9091E+00  0.000E+00  0.000E+00  0.000E+00  1.07836E+03  6.368E-01  1.000E+01  2.500E-02  1.212E+00
   1    5    9     4     2    9.9091E+00  1.8158E-01   9.7275E+00  0.000E+00  0.000E+00  0.000E+00  1.07154E+03  6.315E-01  1.000E+01  5.000E-02  1.211E+00
   1    6    8     4     3    9.7275E+00  1.2689E-01   9.6006E+00  0.000E+00  0.000E+00  0.000E+00  1.06381E+03  6.256E-01  1.000E+01  3.500E-02  1.209E+00
   1    6    8     5     1    1.0432E+01  2.2686E-01   1.0205E+01  0.000E+00  0.000E+00  0.000E+00  1.05868E+03  6.790E-01  1.542E+01  6.166E-02  1.226E+00
   1    7    7     5     2    1.0205E+01  2.7894E-01   9.9265E+00  0.000E+00  0.000E+00  0.000E+00  1.05417E+03  6.732E-01  1.519E+01  7.594E-02  1.224E+00
   1    8    7     5     3    9.9265E+00  1.9221E-01   9.7343E+00  0.000E+00  0.000E+00  0.000E+00  1.04992E+03  6.676E-01  1.497E+01  5.241E-02  1.223E+00
   1    8    6     5     4    9.7343E+00  1.3577E-01   9.5985E+00  0.000E+00  0.000E+00  0.000E+00  1.04691E+03  6.637E-01  1.482E+01  3.706E-02  1.221E+00
   1    9    6     6     1    9.5985E+00  2.2097E-01   9.3776E+00  0.000E+00  0.000E+00  0.000E+00  1.04341E+03  6.828E-01  1.200E+01  6.000E-02  1.228E+00
   1   10    7     6     2    9.3776E+00  2.2039E-01   9.1572E+00  0.000E+00  0.000E+00  0.000E+00  1.03885E+03  6.732E-01  1.200E+01  6.000E-02  1.224E+00
   1   11    7     6     3    9.1572E+00  2.1981E-01   8.9374E+00  0.000E+00  0.000E+00  0.000E+00  1.03430E+03  6.636E-01  1.200E+01  6.000E-02  1.221E+00
   1   12    7     6     4    8.9374E+00  2.1923E-01   8.7181E+00  0.000E+00  0.000E+00  0.000E+00  1.02974E+03  6.539E-01  1.200E+01  6.000E-02  1.218E+00
   1   13    7     6     5    8.7181E+00 -1.3378E-01   8.8519E+00  0.000E+00  0.000E+00  0.000E+00  1.02656E+03  6.520E-01  1.200E+01  2.400E-01 -1.858E-01
   1   14    9     7     1    1.5000E+02  1.3356E+00   1.4866E+02  0.000E+00  0.000E+00  0.000E+00  1.03987E+03  2.288E+00  5.529E+01  5.593E-01  7.960E-01
   1   13    8     7     2    1.4866E+02  1.8263E+00   1.4684E+02  0.000E+00  0.000E+00  0.000E+00  1.03478E+03  2.279E+00  5.526E+01  6.148E-01  9.902E-01
   1   13    7     7     3    1.4684E+02  1.4361E+00   1.4540E+02  0.000E+00  0.000E+00  0.000E+00  1.02969E+03  2.271E+00  5.522E+01  5.585E-01  8.572E-01
   1   13    6     8     1    1.5425E+02  7.8621E-01   1.5347E+02  0.000E+00  0.000E+00  0.000E+00  1.02472E+03  2.844E+00  4.124E+01  4.202E-01  6.237E-01
   1   13    5     8     2    1.5347E+02  5.8456E-02   1.5341E+02  0.000E+00  0.000E+00  0.000E+00  1.01847E+03  2.841E+00  4.119E+01  4.198E-01  4.642E-02
   1   13    4     8     3    1.5341E+02 -3.1085E+00   1.5652E+02  0.000E+00  0.000E+00  0.000E+00  1.01223E+03  2.851E+00  4.135E+01  4.213E+00 -2.459E-01
   1   13    3     8     4    1.5652E+02 -4.1895E+00   1.6071E+02  0.000E+00  0.000E+00  0.000E+00  1.00600E+03  2.876E+00  4.171E+01  4.250E+00 -3.286E-01
   1   13    2     8     5    1.6071E+02 -3.1244E+00   1.6383E+02  0.000E+00  0.000E+00  0.000E+00  9.99776E+02  2.901E+00  4.207E+01  4.287E+00 -2.430E-01
   1   13    1     8     6    1.6383E+02 -2.3324E+00   1.6616E+02  0.000E+00  0.000E+00  0.000E+00  9.94794E+02  2.919E+00  4.233E+01  2.588E+00 -3.004E-01
   1    8    6     9     1    1.6594E+01  0.0000E+00   1.6594E+01  0.000E+00  0.000E+00  0.000E+00  1.08182E+03  3.071E+00  4.000E+00  0.000E+00  2.024E+00
   1    8    5     9     2    1.6594E+01  0.0000E+00   1.6594E+01  0.000E+00  0.000E+00  0.000E+00  1.08132E+03  3.071E+00  4.000E+00  0.000E+00  2.024E+00



 UBDSV3 SAVING "           GW ET" ON UNIT  61 AT TIME STEP  8, STRESS PERIOD   5
 UBDSV3 SAVING "    UZF RECHARGE" ON UNIT  61 AT TIME STEP  8, STRESS PERIOD   5
 UBDSV3 SAVING " SURFACE LEAKAGE" ON UNIT  61 AT TIME STEP  8, STRESS PERIOD   5
 UBDSV3 SAVING "       HORT+DUNN" ON UNIT  61 AT TIME STEP  8, STRESS PERIOD   5
 UBDSV3 SAVING "  STORAGE CHANGE" ON UNIT  61 AT TIME STEP  8, STRESS PERIOD   5


UNSATURATED ZONE PACKAGE VOLUMETRIC BUDGET FOR  TIME STEP     8 STRESS PERIOD    5
  ------------------------------------------------------------------------------



     CUMULATIVE VOLUMES      L**3       RATES FOR THIS TIME STEP      L**3/T
     ------------------                 ------------------------

           IN:                                      IN:
           ---                                      ---
        INFILTRATION =    84032103.9603          INFILTRATION =          55.7957

          OUT:                                     OUT:
          ----                                     ----
              UZF ET =     9806304.8699                UZF ET =           4.5675
        UZF RECHARGE =       73224.0000          UZF RECHARGE =       0.0000E+00

            IN - OUT =    74152575.0904              IN - OUT =          51.2282

          STORAGE:                                 STORAGE:
          --------                                 --------
      STORAGE CHANGE =    74152373.0499        STORAGE CHANGE =          51.2282

 PERCENT DISCREPANCY IS DIFFERENCE BETWEEN IN-OUT MINUS CHANGE IN STORAGE
 DIVIDED BY THE AVERAGE OF IN AND OUT TIMES 100

 PERCENT DISCREPANCY =           0.00     PERCENT DISCREPANCY =           0.00






 

        AG WELLS          PERIOD    5   STEP   8
 AG WELL      1   LAYER   1   ROW     6   COL     4   RATE    -6.39233    
 AG WELL      2   LAYER   1   ROW     6   COL     5   RATE    -6.39233    
 AG WELL      3   LAYER   1   ROW     7   COL     4   RATE    -6.39233    
 AG WELL      4   LAYER   1   ROW     7   COL     5   RATE    -6.39233    
 AG WELL      5   LAYER   1   ROW     8   COL     4   RATE    -6.39233    
 AG WELL      6   LAYER   1   ROW     8   COL     5   RATE    -6.39233    
 
 

   DIVERSION SEGMENTS     PERIOD    5   STEP   8
 SEGMENT      9   RATE     16.5939    
 
 

        SW IRRIGATION     PERIOD    5   STEP   8
 SEGMENT      9   ROW     6   COL     4   RATE     2.76570    
 SEGMENT      9   ROW     6   COL     5   RATE     2.76570    
 SEGMENT      9   ROW     7   COL     4   RATE     2.76570    
 SEGMENT      9   ROW     7   COL     5   RATE     2.76570    
 SEGMENT      9   ROW     8   COL     4   RATE     2.76570    
 SEGMENT      9   ROW     8   COL     5   RATE     2.76570    
 
 

        GW IRRIGATION     PERIOD    5   STEP   8
 AG WELL      1   ROW     6   COL     4   RATE     6.39233    
 AG WELL      2   ROW     6   COL     5   RATE     6.39233    
 AG WELL      3   ROW     7   COL     4   RATE     6.39233    
 AG WELL      4   ROW     7   COL     5   RATE     6.39233    
 AG WELL      5   ROW     8   COL     4   RATE     6.39233    
 AG WELL      6   ROW     8   COL     5   RATE     6.39233    
 
1
  VOLUMETRIC BUDGET FOR AGRICULTURAL FIELDS AT  END OF TIME STEP    8, STRESS PERIOD   5
  ------------------------------------------------------------------------------

     CUMULATIVE VOLUMES      L**3       RATES FOR THIS TIME STEP      L**3/T
     ------------------                 ------------------------

           IN:                                      IN:
           ---                                      ---
           AG WELLS      =    65039724.0000             AG WELLS      =          38.3540
      DIVERSION SEGMENTS =    11637779.0000        DIVERSION SEGMENTS =          16.5939
           GW IRRIGATION =           0.0000             GW IRRIGATION =           0.0000
           SW IRRIGATION =           0.0000             SW IRRIGATION =           0.0000
        SYSTEM LOSSES GW =           0.0000          SYSTEM LOSSES GW =           0.0000
        SYSTEM LOSSES SW =           0.0000          SYSTEM LOSSES SW =           0.0000

                TOTAL IN =    76677504.0000                  TOTAL IN =          54.9479

          OUT:                                     OUT:
          ----                                     ----
           AG WELLS      =           0.0000             AG WELLS      =           0.0000
      DIVERSION SEGMENTS =           0.0000        DIVERSION SEGMENTS =           0.0000
           GW IRRIGATION =    65039724.0000             GW IRRIGATION =          38.3540
           SW IRRIGATION =    11638010.0000             SW IRRIGATION =          16.5942
        SYSTEM LOSSES GW =           0.0000          SYSTEM LOSSES GW =           0.0000
        SYSTEM LOSSES SW =           0.0000          SYSTEM LOSSES SW =           0.0000

               TOTAL OUT =    76677736.0000                 TOTAL OUT =          54.9482

                IN - OUT =        -232.0000                  IN - OUT =      -3.2806E-04

     PERCENT DISCREPANCY =          -0.00         PERCENT DISCREPANCY =          -0.00



1
  VOLUMETRIC BUDGET FOR ENTIRE MODEL AT END OF TIME STEP    8, STRESS PERIOD   5
  ------------------------------------------------------------------------------

     CUMULATIVE VOLUMES      L**3       RATES FOR THIS TIME STEP      L**3/T
     ------------------                 ------------------------

           IN:                                      IN:
           ---                                      ---
             STORAGE     =    71610880.0000               STORAGE     =          40.7886
       CONSTANT HEAD     =           0.0000         CONSTANT HEAD     =           0.0000
     HEAD DEP BOUNDS     =     2479127.2500       HEAD DEP BOUNDS     =           0.2857
      STREAM LEAKAGE     =   103691848.0000        STREAM LEAKAGE     =          11.1306
        UZF RECHARGE     =       73223.9531          UZF RECHARGE     =           0.0000
               GW ET     =           0.0000                 GW ET     =           0.0000
     SURFACE LEAKAGE     =           0.0000       SURFACE LEAKAGE     =           0.0000
           AG WELLS      =           0.0000             AG WELLS      =           0.0000

                TOTAL IN =   177855072.0000                  TOTAL IN =          52.2050

          OUT:                                     OUT:
          ----                                     ----
             STORAGE     =    18612558.0000               STORAGE     =           0.6700
       CONSTANT HEAD     =           0.0000         CONSTANT HEAD     =           0.0000
     HEAD DEP BOUNDS     =     2522350.5000       HEAD DEP BOUNDS     =           0.2924
      STREAM LEAKAGE     =    91649752.0000        STREAM LEAKAGE     =          12.8886
        UZF RECHARGE     =           0.0000          UZF RECHARGE     =           0.0000
               GW ET     =       34549.5586                 GW ET     =           0.0000
     SURFACE LEAKAGE     =           0.0000       SURFACE LEAKAGE     =           0.0000
           AG WELLS      =    65039724.0000             AG WELLS      =          38.3540

               TOTAL OUT =   177858928.0000                 TOTAL OUT =          52.2050

                IN - OUT =       -3856.0000                  IN - OUT =       7.2479E-05

     PERCENT DISCREPANCY =          -0.00         PERCENT DISCREPANCY =           0.00






         TIME SUMMARY AT END OF TIME STEP    8 IN STRESS PERIOD    5
                    SECONDS     MINUTES      HOURS       DAYS        YEARS
                    -----------------------------------------------------------
   TIME STEP LENGTH  87667.      1461.1      24.352      1.0147     2.77799E-03
 STRESS PERIOD TIME 7.01333E+05  11689.      194.81      8.1173     2.22239E-02
         TOTAL TIME 8.67773E+06 1.44629E+05  2410.5      100.44     0.27498    
1
 
 SOLVING FOR HEAD 
                                                   Max.-Head-Change                         Max.-Flux-Residual
  Residual-Control   Outer-Iter.   Inner-Iter.     Column Row Layer    Maximum-Head-Change  Column Row Layer    Maximum-Flux-Residual          L2-NORM 
          0                 1           2             5    8     1       0.4874072161E-01       5    8    1         0.2676867306E+01      0.6026622578E+01
          0                 2           2             5    6     1      -0.8795618032E-01       5    8    1        -0.4846671459E+01      0.1170849544E+02
          0                 3           2             4    7     1       0.5604445273E-01       5    8    1         0.3104908726E+01      0.7593787345E+01
          0                 4           2             4    7     1      -0.8296688802E-01       5    8    1        -0.4705943843E+01      0.1152667749E+02
          0                 5           2             4    7     1       0.1022976344E-02       4    7    1         0.5962503567E-01      0.1460832125E+00
          0                 6           1             4    7     1       0.1504514477E-04       5    8    1         0.8786691890E-03      0.2154507789E-02

    ------------------------------------------------
       NWT REQUIRED            6 OUTER ITERATIONS 
       AND A TOTAL OF         11 INNER ITERATIONS.
    ------------------------------------------------

 OUTPUT CONTROL FOR STRESS PERIOD    5   TIME STEP    9
    PRINT BUDGET
    SAVE BUDGET
 UBDSV1 SAVING "         STORAGE" ON UNIT 102 AT TIME STEP  9, STRESS PERIOD   5
 UBDSV2 SAVING "   CONSTANT HEAD" ON UNIT 102 AT TIME STEP  9, STRESS PERIOD   5
 UBDSV1 SAVING "FLOW RIGHT FACE " ON UNIT 102 AT TIME STEP  9, STRESS PERIOD   5
 UBDSV1 SAVING "FLOW FRONT FACE " ON UNIT 102 AT TIME STEP  9, STRESS PERIOD   5

  HEAD DEP BOUNDS   PERIOD    5   STEP     9
 BOUNDARY      1   LAYER   1   ROW    13   COL     1   RATE   -0.292193    
 BOUNDARY      2   LAYER   1   ROW    14   COL     9   RATE    0.285742    



 STREAM LISTING     PERIOD      5   STEP        9

 LAYER ROW COL. STREAM  RCH.  FLOW INTO     FLOW TO   FLOW OUT OF   OVRLND.     DIRECT     STREAM       STREAM     STREAM     STREAM   STREAMBED  STREAMBED
                SEG.NO.  NO.  STRM. RCH.    AQUIFER    STRM. RCH.    RUNOFF     PRECIP       ET          HEAD       DEPTH      WIDTH   CONDCTNC.   GRADIENT

   1    1    1     1     1    2.1000E+01  2.2592E-01   2.0774E+01  0.000E+00  0.000E+00  0.000E+00  1.09416E+03  1.115E+00  1.220E+01  5.490E-02  1.372E+00
   1    2    2     1     2    2.0774E+01  3.4916E-01   2.0425E+01  0.000E+00  0.000E+00  0.000E+00  1.08917E+03  1.110E+00  1.214E+01  8.495E-02  1.370E+00
   1    3    3     1     3    2.0425E+01  2.9709E-01   2.0128E+01  0.000E+00  0.000E+00  0.000E+00  1.08352E+03  1.105E+00  1.206E+01  7.238E-02  1.368E+00
   1    3    4     1     4    2.0128E+01  2.7299E-01   1.9855E+01  0.000E+00  0.000E+00  0.000E+00  1.07851E+03  1.100E+00  1.200E+01  6.659E-02  1.367E+00
   1    4    5     2     1    1.7855E+01  3.1056E-01   1.7544E+01  0.000E+00  0.000E+00  0.000E+00  1.07292E+03  9.816E-01  1.200E+01  7.800E-02  1.327E+00
   1    5    6     2     2    1.7544E+01  2.3834E-01   1.7306E+01  0.000E+00  0.000E+00  0.000E+00  1.06748E+03  9.724E-01  1.200E+01  6.000E-02  1.324E+00
   1    6    6     2     3    1.7306E+01  2.3787E-01   1.7068E+01  0.000E+00  0.000E+00  0.000E+00  1.06276E+03  9.644E-01  1.200E+01  6.000E-02  1.321E+00
   1    7    6     2     4    1.7068E+01  2.3738E-01   1.6831E+01  0.000E+00  0.000E+00  0.000E+00  1.05803E+03  9.564E-01  1.200E+01  6.000E-02  1.319E+00
   1    8    6     2     5    1.6831E+01  2.3690E-01   1.6594E+01  0.000E+00  0.000E+00  0.000E+00  1.05331E+03  9.483E-01  1.200E+01  6.000E-02  1.316E+00
   1    3    5     3     1    2.0000E+00  2.8252E-01   1.7175E+00  0.000E+00  0.000E+00  0.000E+00  1.07555E+03  1.909E+00  9.636E+00  7.227E-02  1.955E+00
   1    3    6     3     2    1.7175E+00  2.4905E-01   1.4684E+00  0.000E+00  0.000E+00  0.000E+00  1.07264E+03  1.727E+00  8.909E+00  6.682E-02  1.864E+00
   1    3    7     3     3    1.4684E+00  1.9718E-01   1.2712E+00  0.000E+00  0.000E+00  0.000E+00  1.06987E+03  1.555E+00  8.218E+00  5.547E-02  1.777E+00
   1    4    8     3     4    1.2712E+00  2.2567E-01   1.0456E+00  0.000E+00  0.000E+00  0.000E+00  1.06682E+03  1.364E+00  7.455E+00  6.709E-02  1.682E+00
   1    5    8     3     5    1.0456E+00  1.5790E-01   8.8768E-01  0.000E+00  0.000E+00  0.000E+00  1.06362E+03  1.164E+00  6.655E+00  4.991E-02  1.582E+00
   1    6    8     3     6    8.8768E-01  5.5980E-02   8.3170E-01  0.000E+00  0.000E+00  0.000E+00  1.06158E+03  1.036E+00  6.145E+00  1.844E-02  1.518E+00
   1    5   10     4     1    1.0000E+01  9.0919E-02   9.9091E+00  0.000E+00  0.000E+00  0.000E+00  1.07836E+03  6.368E-01  1.000E+01  2.500E-02  1.212E+00
   1    5    9     4     2    9.9091E+00  1.8158E-01   9.7275E+00  0.000E+00  0.000E+00  0.000E+00  1.07154E+03  6.315E-01  1.000E+01  5.000E-02  1.211E+00
   1    6    8     4     3    9.7275E+00  1.2689E-01   9.6006E+00  0.000E+00  0.000E+00  0.000E+00  1.06381E+03  6.256E-01  1.000E+01  3.500E-02  1.209E+00
   1    6    8     5     1    1.0432E+01  2.2686E-01   1.0205E+01  0.000E+00  0.000E+00  0.000E+00  1.05868E+03  6.790E-01  1.542E+01  6.166E-02  1.226E+00
   1    7    7     5     2    1.0205E+01  2.7894E-01   9.9265E+00  0.000E+00  0.000E+00  0.000E+00  1.05417E+03  6.732E-01  1.519E+01  7.594E-02  1.224E+00
   1    8    7     5     3    9.9265E+00  1.9221E-01   9.7343E+00  0.000E+00  0.000E+00  0.000E+00  1.04992E+03  6.676E-01  1.497E+01  5.241E-02  1.223E+00
   1    8    6     5     4    9.7343E+00  1.3577E-01   9.5985E+00  0.000E+00  0.000E+00  0.000E+00  1.04691E+03  6.637E-01  1.482E+01  3.706E-02  1.221E+00
   1    9    6     6     1    9.5985E+00  2.2097E-01   9.3776E+00  0.000E+00  0.000E+00  0.000E+00  1.04341E+03  6.828E-01  1.200E+01  6.000E-02  1.228E+00
   1   10    7     6     2    9.3776E+00  2.2039E-01   9.1572E+00  0.000E+00  0.000E+00  0.000E+00  1.03885E+03  6.732E-01  1.200E+01  6.000E-02  1.224E+00
   1   11    7     6     3    9.1572E+00  2.1981E-01   8.9374E+00  0.000E+00  0.000E+00  0.000E+00  1.03430E+03  6.636E-01  1.200E+01  6.000E-02  1.221E+00
   1   12    7     6     4    8.9374E+00  2.1923E-01   8.7181E+00  0.000E+00  0.000E+00  0.000E+00  1.02974E+03  6.539E-01  1.200E+01  6.000E-02  1.218E+00
   1   13    7     6     5    8.7181E+00 -1.3342E-01   8.8515E+00  0.000E+00  0.000E+00  0.000E+00  1.02656E+03  6.519E-01  1.200E+01  2.400E-01 -1.853E-01
   1   14    9     7     1    1.5000E+02  1.3356E+00   1.4866E+02  0.000E+00  0.000E+00  0.000E+00  1.03987E+03  2.288E+00  5.529E+01  5.593E-01  7.960E-01
   1   13    8     7     2    1.4866E+02  1.8262E+00   1.4684E+02  0.000E+00  0.000E+00  0.000E+00  1.03478E+03  2.279E+00  5.526E+01  6.148E-01  9.902E-01
   1   13    7     7     3    1.4684E+02  1.4369E+00   1.4540E+02  0.000E+00  0.000E+00  0.000E+00  1.02969E+03  2.271E+00  5.522E+01  5.585E-01  8.577E-01
   1   13    6     8     1    1.5425E+02  7.8708E-01   1.5347E+02  0.000E+00  0.000E+00  0.000E+00  1.02472E+03  2.844E+00  4.124E+01  4.202E-01  6.244E-01
   1   13    5     8     2    1.5347E+02  5.9284E-02   1.5341E+02  0.000E+00  0.000E+00  0.000E+00  1.01847E+03  2.841E+00  4.119E+01  4.198E-01  4.708E-02
   1   13    4     8     3    1.5341E+02 -3.0767E+00   1.5648E+02  0.000E+00  0.000E+00  0.000E+00  1.01223E+03  2.851E+00  4.134E+01  4.213E+00 -2.434E-01
   1   13    3     8     4    1.5648E+02 -4.1585E+00   1.6064E+02  0.000E+00  0.000E+00  0.000E+00  1.00600E+03  2.876E+00  4.170E+01  4.250E+00 -3.262E-01
   1   13    2     8     5    1.6064E+02 -3.0884E+00   1.6373E+02  0.000E+00  0.000E+00  0.000E+00  9.99776E+02  2.901E+00  4.206E+01  4.286E+00 -2.402E-01
   1   13    1     8     6    1.6373E+02 -2.3176E+00   1.6605E+02  0.000E+00  0.000E+00  0.000E+00  9.94794E+02  2.919E+00  4.232E+01  2.588E+00 -2.986E-01
   1    8    6     9     1    1.6594E+01  0.0000E+00   1.6594E+01  0.000E+00  0.000E+00  0.000E+00  1.08182E+03  3.071E+00  4.000E+00  0.000E+00  2.024E+00
   1    8    5     9     2    1.6594E+01  0.0000E+00   1.6594E+01  0.000E+00  0.000E+00  0.000E+00  1.08132E+03  3.071E+00  4.000E+00  0.000E+00  2.024E+00



 UBDSV3 SAVING "           GW ET" ON UNIT  61 AT TIME STEP  9, STRESS PERIOD   5
 UBDSV3 SAVING "    UZF RECHARGE" ON UNIT  61 AT TIME STEP  9, STRESS PERIOD   5
 UBDSV3 SAVING " SURFACE LEAKAGE" ON UNIT  61 AT TIME STEP  9, STRESS PERIOD   5
 UBDSV3 SAVING "       HORT+DUNN" ON UNIT  61 AT TIME STEP  9, STRESS PERIOD   5
 UBDSV3 SAVING "  STORAGE CHANGE" ON UNIT  61 AT TIME STEP  9, STRESS PERIOD   5


UNSATURATED ZONE PACKAGE VOLUMETRIC BUDGET FOR  TIME STEP     9 STRESS PERIOD    5
  ------------------------------------------------------------------------------



     CUMULATIVE VOLUMES      L**3       RATES FOR THIS TIME STEP      L**3/T
     ------------------                 ------------------------

           IN:                                      IN:
           ---                                      ---
        INFILTRATION =    88923524.9561          INFILTRATION =          55.7957

          OUT:                                     OUT:
          ----                                     ----
              UZF ET =    10206722.3501                UZF ET =           4.5675
        UZF RECHARGE =       73224.0000          UZF RECHARGE =       0.0000E+00

            IN - OUT =    78643578.6060              IN - OUT =          51.2282

          STORAGE:                                 STORAGE:
          --------                                 --------
      STORAGE CHANGE =    78643376.5883        STORAGE CHANGE =          51.2282

 PERCENT DISCREPANCY IS DIFFERENCE BETWEEN IN-OUT MINUS CHANGE IN STORAGE
 DIVIDED BY THE AVERAGE OF IN AND OUT TIMES 100

 PERCENT DISCREPANCY =           0.00     PERCENT DISCREPANCY =           0.00






 

        AG WELLS          PERIOD    5   STEP   9
 AG WELL      1   LAYER   1   ROW     6   COL     4   RATE    -6.39233    
 AG WELL      2   LAYER   1   ROW     6   COL     5   RATE    -6.39233    
 AG WELL      3   LAYER   1   ROW     7   COL     4   RATE    -6.39233    
 AG WELL      4   LAYER   1   ROW     7   COL     5   RATE    -6.39233    
 AG WELL      5   LAYER   1   ROW     8   COL     4   RATE    -6.39233    
 AG WELL      6   LAYER   1   ROW     8   COL     5   RATE    -6.39233    
 
 

   DIVERSION SEGMENTS     PERIOD    5   STEP   9
 SEGMENT      9   RATE     16.5939    
 
 

        SW IRRIGATION     PERIOD    5   STEP   9
 SEGMENT      9   ROW     6   COL     4   RATE     2.76570    
 SEGMENT      9   ROW     6   COL     5   RATE     2.76570    
 SEGMENT      9   ROW     7   COL     4   RATE     2.76570    
 SEGMENT      9   ROW     7   COL     5   RATE     2.76570    
 SEGMENT      9   ROW     8   COL     4   RATE     2.76570    
 SEGMENT      9   ROW     8   COL     5   RATE     2.76570    
 
 

        GW IRRIGATION     PERIOD    5   STEP   9
 AG WELL      1   ROW     6   COL     4   RATE     6.39233    
 AG WELL      2   ROW     6   COL     5   RATE     6.39233    
 AG WELL      3   ROW     7   COL     4   RATE     6.39233    
 AG WELL      4   ROW     7   COL     5   RATE     6.39233    
 AG WELL      5   ROW     8   COL     4   RATE     6.39233    
 AG WELL      6   ROW     8   COL     5   RATE     6.39233    
 
1
  VOLUMETRIC BUDGET FOR AGRICULTURAL FIELDS AT  END OF TIME STEP    9, STRESS PERIOD   5
  ------------------------------------------------------------------------------

     CUMULATIVE VOLUMES      L**3       RATES FOR THIS TIME STEP      L**3/T
     ------------------                 ------------------------

           IN:                                      IN:
           ---                                      ---
           AG WELLS      =    68402088.0000             AG WELLS      =          38.3540
      DIVERSION SEGMENTS =    13092508.0000        DIVERSION SEGMENTS =          16.5939
           GW IRRIGATION =           0.0000             GW IRRIGATION =           0.0000
           SW IRRIGATION =           0.0000             SW IRRIGATION =           0.0000
        SYSTEM LOSSES GW =           0.0000          SYSTEM LOSSES GW =           0.0000
        SYSTEM LOSSES SW =           0.0000          SYSTEM LOSSES SW =           0.0000

                TOTAL IN =    81494592.0000                  TOTAL IN =          54.9479

          OUT:                                     OUT:
          ----                                     ----
           AG WELLS      =           0.0000             AG WELLS      =           0.0000
      DIVERSION SEGMENTS =           0.0000        DIVERSION SEGMENTS =           0.0000
           GW IRRIGATION =    68402088.0000             GW IRRIGATION =          38.3540
           SW IRRIGATION =    13092768.0000             SW IRRIGATION =          16.5942
        SYSTEM LOSSES GW =           0.0000          SYSTEM LOSSES GW =           0.0000
        SYSTEM LOSSES SW =           0.0000          SYSTEM LOSSES SW =           0.0000

               TOTAL OUT =    81494856.0000                 TOTAL OUT =          54.9482

                IN - OUT =        -264.0000                  IN - OUT =      -3.2806E-04

     PERCENT DISCREPANCY =          -0.00         PERCENT DISCREPANCY =          -0.00



1
  VOLUMETRIC BUDGET FOR ENTIRE MODEL AT END OF TIME STEP    9, STRESS PERIOD   5
  ------------------------------------------------------------------------------

     CUMULATIVE VOLUMES      L**3       RATES FOR THIS TIME STEP      L**3/T
     ------------------                 ------------------------

           IN:                                      IN:
           ---                                      ---
             STORAGE     =    75174200.0000               STORAGE     =          40.6462
       CONSTANT HEAD     =           0.0000         CONSTANT HEAD     =           0.0000
     HEAD DEP BOUNDS     =     2504177.2500       HEAD DEP BOUNDS     =           0.2857
      STREAM LEAKAGE     =   104667856.0000        STREAM LEAKAGE     =          11.1332
        UZF RECHARGE     =       73223.9531          UZF RECHARGE     =           0.0000
               GW ET     =           0.0000                 GW ET     =           0.0000
     SURFACE LEAKAGE     =           0.0000       SURFACE LEAKAGE     =           0.0000
           AG WELLS      =           0.0000             AG WELLS      =           0.0000

                TOTAL IN =   182419456.0000                  TOTAL IN =          52.0651

          OUT:                                     OUT:
          ----                                     ----
             STORAGE     =    18669034.0000               STORAGE     =           0.6442
       CONSTANT HEAD     =           0.0000         CONSTANT HEAD     =           0.0000
     HEAD DEP BOUNDS     =     2547966.0000       HEAD DEP BOUNDS     =           0.2922
      STREAM LEAKAGE     =    92769664.0000        STREAM LEAKAGE     =          12.7747
        UZF RECHARGE     =           0.0000          UZF RECHARGE     =           0.0000
               GW ET     =       34549.5586                 GW ET     =           0.0000
     SURFACE LEAKAGE     =           0.0000       SURFACE LEAKAGE     =           0.0000
           AG WELLS      =    68402088.0000             AG WELLS      =          38.3540

               TOTAL OUT =   182423296.0000                 TOTAL OUT =          52.0650

                IN - OUT =       -3840.0000                  IN - OUT =       7.2479E-05

     PERCENT DISCREPANCY =          -0.00         PERCENT DISCREPANCY =           0.00






         TIME SUMMARY AT END OF TIME STEP    9 IN STRESS PERIOD    5
                    SECONDS     MINUTES      HOURS       DAYS        YEARS
                    -----------------------------------------------------------
   TIME STEP LENGTH  87667.      1461.1      24.352      1.0147     2.77799E-03
 STRESS PERIOD TIME 7.89000E+05  13150.      219.17      9.1319     2.50019E-02
         TOTAL TIME 8.76540E+06 1.46090E+05  2434.8      101.45     0.27776    
1
 
 SOLVING FOR HEAD 
                                                   Max.-Head-Change                         Max.-Flux-Residual
  Residual-Control   Outer-Iter.   Inner-Iter.     Column Row Layer    Maximum-Head-Change  Column Row Layer    Maximum-Flux-Residual          L2-NORM 
          0                 1           2             5    8     1       0.4962371497E-01       5    8    1         0.2724045214E+01      0.6158666204E+01
          0                 2           2             5    6     1      -0.8804429410E-01       5    8    1        -0.4851389154E+01      0.1172288632E+02
          0                 3           2             4    7     1       0.5605258012E-01       5    8    1         0.3105238976E+01      0.7594758649E+01
          0                 4           2             4    7     1      -0.8296740900E-01       5    8    1        -0.4705957411E+01      0.1152671729E+02
          0                 5           2             4    7     1       0.1022982766E-02       4    7    1         0.5962526711E-01      0.1460836846E+00
          0                 6           1             4    7     1       0.1504523943E-04       5    8    1         0.8786716160E-03      0.2154518849E-02

    ------------------------------------------------
       NWT REQUIRED            6 OUTER ITERATIONS 
       AND A TOTAL OF         11 INNER ITERATIONS.
    ------------------------------------------------

 OUTPUT CONTROL FOR STRESS PERIOD    5   TIME STEP   10
    PRINT BUDGET
    SAVE BUDGET
 UBDSV1 SAVING "         STORAGE" ON UNIT 102 AT TIME STEP 10, STRESS PERIOD   5
 UBDSV2 SAVING "   CONSTANT HEAD" ON UNIT 102 AT TIME STEP 10, STRESS PERIOD   5
 UBDSV1 SAVING "FLOW RIGHT FACE " ON UNIT 102 AT TIME STEP 10, STRESS PERIOD   5
 UBDSV1 SAVING "FLOW FRONT FACE " ON UNIT 102 AT TIME STEP 10, STRESS PERIOD   5

  HEAD DEP BOUNDS   PERIOD    5   STEP    10
 BOUNDARY      1   LAYER   1   ROW    13   COL     1   RATE   -0.291966    
 BOUNDARY      2   LAYER   1   ROW    14   COL     9   RATE    0.285743    



 STREAM LISTING     PERIOD      5   STEP       10

 LAYER ROW COL. STREAM  RCH.  FLOW INTO     FLOW TO   FLOW OUT OF   OVRLND.     DIRECT     STREAM       STREAM     STREAM     STREAM   STREAMBED  STREAMBED
                SEG.NO.  NO.  STRM. RCH.    AQUIFER    STRM. RCH.    RUNOFF     PRECIP       ET          HEAD       DEPTH      WIDTH   CONDCTNC.   GRADIENT

   1    1    1     1     1    2.1000E+01  2.2592E-01   2.0774E+01  0.000E+00  0.000E+00  0.000E+00  1.09416E+03  1.115E+00  1.220E+01  5.490E-02  1.372E+00
   1    2    2     1     2    2.0774E+01  3.4916E-01   2.0425E+01  0.000E+00  0.000E+00  0.000E+00  1.08917E+03  1.110E+00  1.214E+01  8.495E-02  1.370E+00
   1    3    3     1     3    2.0425E+01  2.9709E-01   2.0128E+01  0.000E+00  0.000E+00  0.000E+00  1.08352E+03  1.105E+00  1.206E+01  7.238E-02  1.368E+00
   1    3    4     1     4    2.0128E+01  2.7299E-01   1.9855E+01  0.000E+00  0.000E+00  0.000E+00  1.07851E+03  1.100E+00  1.200E+01  6.659E-02  1.367E+00
   1    4    5     2     1    1.7855E+01  3.1056E-01   1.7544E+01  0.000E+00  0.000E+00  0.000E+00  1.07292E+03  9.816E-01  1.200E+01  7.800E-02  1.327E+00
   1    5    6     2     2    1.7544E+01  2.3834E-01   1.7306E+01  0.000E+00  0.000E+00  0.000E+00  1.06748E+03  9.724E-01  1.200E+01  6.000E-02  1.324E+00
   1    6    6     2     3    1.7306E+01  2.3787E-01   1.7068E+01  0.000E+00  0.000E+00  0.000E+00  1.06276E+03  9.644E-01  1.200E+01  6.000E-02  1.321E+00
   1    7    6     2     4    1.7068E+01  2.3738E-01   1.6831E+01  0.000E+00  0.000E+00  0.000E+00  1.05803E+03  9.564E-01  1.200E+01  6.000E-02  1.319E+00
   1    8    6     2     5    1.6831E+01  2.3690E-01   1.6594E+01  0.000E+00  0.000E+00  0.000E+00  1.05331E+03  9.483E-01  1.200E+01  6.000E-02  1.316E+00
   1    3    5     3     1    2.0000E+00  2.8252E-01   1.7175E+00  0.000E+00  0.000E+00  0.000E+00  1.07555E+03  1.909E+00  9.636E+00  7.227E-02  1.955E+00
   1    3    6     3     2    1.7175E+00  2.4905E-01   1.4684E+00  0.000E+00  0.000E+00  0.000E+00  1.07264E+03  1.727E+00  8.909E+00  6.682E-02  1.864E+00
   1    3    7     3     3    1.4684E+00  1.9718E-01   1.2712E+00  0.000E+00  0.000E+00  0.000E+00  1.06987E+03  1.555E+00  8.218E+00  5.547E-02  1.777E+00
   1    4    8     3     4    1.2712E+00  2.2567E-01   1.0456E+00  0.000E+00  0.000E+00  0.000E+00  1.06682E+03  1.364E+00  7.455E+00  6.709E-02  1.682E+00
   1    5    8     3     5    1.0456E+00  1.5790E-01   8.8768E-01  0.000E+00  0.000E+00  0.000E+00  1.06362E+03  1.164E+00  6.655E+00  4.991E-02  1.582E+00
   1    6    8     3     6    8.8768E-01  5.5980E-02   8.3170E-01  0.000E+00  0.000E+00  0.000E+00  1.06158E+03  1.036E+00  6.145E+00  1.844E-02  1.518E+00
   1    5   10     4     1    1.0000E+01  9.0919E-02   9.9091E+00  0.000E+00  0.000E+00  0.000E+00  1.07836E+03  6.368E-01  1.000E+01  2.500E-02  1.212E+00
   1    5    9     4     2    9.9091E+00  1.8158E-01   9.7275E+00  0.000E+00  0.000E+00  0.000E+00  1.07154E+03  6.315E-01  1.000E+01  5.000E-02  1.211E+00
   1    6    8     4     3    9.7275E+00  1.2689E-01   9.6006E+00  0.000E+00  0.000E+00  0.000E+00  1.06381E+03  6.256E-01  1.000E+01  3.500E-02  1.209E+00
   1    6    8     5     1    1.0432E+01  2.2686E-01   1.0205E+01  0.000E+00  0.000E+00  0.000E+00  1.05868E+03  6.790E-01  1.542E+01  6.166E-02  1.226E+00
   1    7    7     5     2    1.0205E+01  2.7894E-01   9.9265E+00  0.000E+00  0.000E+00  0.000E+00  1.05417E+03  6.732E-01  1.519E+01  7.594E-02  1.224E+00
   1    8    7     5     3    9.9265E+00  1.9221E-01   9.7343E+00  0.000E+00  0.000E+00  0.000E+00  1.04992E+03  6.676E-01  1.497E+01  5.241E-02  1.223E+00
   1    8    6     5     4    9.7343E+00  1.3577E-01   9.5985E+00  0.000E+00  0.000E+00  0.000E+00  1.04691E+03  6.637E-01  1.482E+01  3.706E-02  1.221E+00
   1    9    6     6     1    9.5985E+00  2.2097E-01   9.3776E+00  0.000E+00  0.000E+00  0.000E+00  1.04341E+03  6.828E-01  1.200E+01  6.000E-02  1.228E+00
   1   10    7     6     2    9.3776E+00  2.2039E-01   9.1572E+00  0.000E+00  0.000E+00  0.000E+00  1.03885E+03  6.732E-01  1.200E+01  6.000E-02  1.224E+00
   1   11    7     6     3    9.1572E+00  2.1981E-01   8.9374E+00  0.000E+00  0.000E+00  0.000E+00  1.03430E+03  6.636E-01  1.200E+01  6.000E-02  1.221E+00
   1   12    7     6     4    8.9374E+00  2.1923E-01   8.7181E+00  0.000E+00  0.000E+00  0.000E+00  1.02974E+03  6.539E-01  1.200E+01  6.000E-02  1.218E+00
   1   13    7     6     5    8.7181E+00 -1.3307E-01   8.8512E+00  0.000E+00  0.000E+00  0.000E+00  1.02656E+03  6.519E-01  1.200E+01  2.400E-01 -1.848E-01
   1   14    9     7     1    1.5000E+02  1.3356E+00   1.4866E+02  0.000E+00  0.000E+00  0.000E+00  1.03987E+03  2.288E+00  5.529E+01  5.593E-01  7.960E-01
   1   13    8     7     2    1.4866E+02  1.8262E+00   1.4684E+02  0.000E+00  0.000E+00  0.000E+00  1.03478E+03  2.279E+00  5.526E+01  6.148E-01  9.902E-01
   1   13    7     7     3    1.4684E+02  1.4377E+00   1.4540E+02  0.000E+00  0.000E+00  0.000E+00  1.02969E+03  2.271E+00  5.522E+01  5.585E-01  8.582E-01
   1   13    6     8     1    1.5425E+02  7.8793E-01   1.5346E+02  0.000E+00  0.000E+00  0.000E+00  1.02472E+03  2.844E+00  4.123E+01  4.202E-01  6.250E-01
   1   13    5     8     2    1.5346E+02  6.0114E-02   1.5340E+02  0.000E+00  0.000E+00  0.000E+00  1.01847E+03  2.841E+00  4.119E+01  4.198E-01  4.774E-02
   1   13    4     8     3    1.5340E+02 -3.0476E+00   1.5645E+02  0.000E+00  0.000E+00  0.000E+00  1.01223E+03  2.851E+00  4.134E+01  4.213E+00 -2.411E-01
   1   13    3     8     4    1.5645E+02 -4.1299E+00   1.6058E+02  0.000E+00  0.000E+00  0.000E+00  1.00600E+03  2.876E+00  4.170E+01  4.249E+00 -3.240E-01
   1   13    2     8     5    1.6058E+02 -3.0551E+00   1.6364E+02  0.000E+00  0.000E+00  0.000E+00  9.99775E+02  2.900E+00  4.205E+01  4.285E+00 -2.376E-01
   1   13    1     8     6    1.6364E+02 -2.3034E+00   1.6594E+02  0.000E+00  0.000E+00  0.000E+00  9.94793E+02  2.918E+00  4.231E+01  2.587E+00 -2.968E-01
   1    8    6     9     1    1.6594E+01  0.0000E+00   1.6594E+01  0.000E+00  0.000E+00  0.000E+00  1.08182E+03  3.071E+00  4.000E+00  0.000E+00  2.024E+00
   1    8    5     9     2    1.6594E+01  0.0000E+00   1.6594E+01  0.000E+00  0.000E+00  0.000E+00  1.08132E+03  3.071E+00  4.000E+00  0.000E+00  2.024E+00



 UBDSV3 SAVING "           GW ET" ON UNIT  61 AT TIME STEP 10, STRESS PERIOD   5
 UBDSV3 SAVING "    UZF RECHARGE" ON UNIT  61 AT TIME STEP 10, STRESS PERIOD   5
 UBDSV3 SAVING " SURFACE LEAKAGE" ON UNIT  61 AT TIME STEP 10, STRESS PERIOD   5
 UBDSV3 SAVING "       HORT+DUNN" ON UNIT  61 AT TIME STEP 10, STRESS PERIOD   5
 UBDSV3 SAVING "  STORAGE CHANGE" ON UNIT  61 AT TIME STEP 10, STRESS PERIOD   5


UNSATURATED ZONE PACKAGE VOLUMETRIC BUDGET FOR  TIME STEP    10 STRESS PERIOD    5
  ------------------------------------------------------------------------------



     CUMULATIVE VOLUMES      L**3       RATES FOR THIS TIME STEP      L**3/T
     ------------------                 ------------------------

           IN:                                      IN:
           ---                                      ---
        INFILTRATION =    93814945.9520          INFILTRATION =          55.7957

          OUT:                                     OUT:
          ----                                     ----
              UZF ET =    10607139.8304                UZF ET =           4.5675
        UZF RECHARGE =       73224.0000          UZF RECHARGE =       0.0000E+00

            IN - OUT =    83134582.1216              IN - OUT =          51.2282

          STORAGE:                                 STORAGE:
          --------                                 --------
      STORAGE CHANGE =    83134380.1267        STORAGE CHANGE =          51.2282

 PERCENT DISCREPANCY IS DIFFERENCE BETWEEN IN-OUT MINUS CHANGE IN STORAGE
 DIVIDED BY THE AVERAGE OF IN AND OUT TIMES 100

 PERCENT DISCREPANCY =           0.00     PERCENT DISCREPANCY =           0.00






 

        AG WELLS          PERIOD    5   STEP  10
 AG WELL      1   LAYER   1   ROW     6   COL     4   RATE    -6.39233    
 AG WELL      2   LAYER   1   ROW     6   COL     5   RATE    -6.39233    
 AG WELL      3   LAYER   1   ROW     7   COL     4   RATE    -6.39233    
 AG WELL      4   LAYER   1   ROW     7   COL     5   RATE    -6.39233    
 AG WELL      5   LAYER   1   ROW     8   COL     4   RATE    -6.39233    
 AG WELL      6   LAYER   1   ROW     8   COL     5   RATE    -6.39233    
 
 

   DIVERSION SEGMENTS     PERIOD    5   STEP  10
 SEGMENT      9   RATE     16.5939    
 
 

        SW IRRIGATION     PERIOD    5   STEP  10
 SEGMENT      9   ROW     6   COL     4   RATE     2.76570    
 SEGMENT      9   ROW     6   COL     5   RATE     2.76570    
 SEGMENT      9   ROW     7   COL     4   RATE     2.76570    
 SEGMENT      9   ROW     7   COL     5   RATE     2.76570    
 SEGMENT      9   ROW     8   COL     4   RATE     2.76570    
 SEGMENT      9   ROW     8   COL     5   RATE     2.76570    
 
 

        GW IRRIGATION     PERIOD    5   STEP  10
 AG WELL      1   ROW     6   COL     4   RATE     6.39233    
 AG WELL      2   ROW     6   COL     5   RATE     6.39233    
 AG WELL      3   ROW     7   COL     4   RATE     6.39233    
 AG WELL      4   ROW     7   COL     5   RATE     6.39233    
 AG WELL      5   ROW     8   COL     4   RATE     6.39233    
 AG WELL      6   ROW     8   COL     5   RATE     6.39233    
 
1
  VOLUMETRIC BUDGET FOR AGRICULTURAL FIELDS AT  END OF TIME STEP   10, STRESS PERIOD   5
  ------------------------------------------------------------------------------

     CUMULATIVE VOLUMES      L**3       RATES FOR THIS TIME STEP      L**3/T
     ------------------                 ------------------------

           IN:                                      IN:
           ---                                      ---
           AG WELLS      =    71764456.0000             AG WELLS      =          38.3540
      DIVERSION SEGMENTS =    14547237.0000        DIVERSION SEGMENTS =          16.5939
           GW IRRIGATION =           0.0000             GW IRRIGATION =           0.0000
           SW IRRIGATION =           0.0000             SW IRRIGATION =           0.0000
        SYSTEM LOSSES GW =           0.0000          SYSTEM LOSSES GW =           0.0000
        SYSTEM LOSSES SW =           0.0000          SYSTEM LOSSES SW =           0.0000

                TOTAL IN =    86311696.0000                  TOTAL IN =          54.9479

          OUT:                                     OUT:
          ----                                     ----
           AG WELLS      =           0.0000             AG WELLS      =           0.0000
      DIVERSION SEGMENTS =           0.0000        DIVERSION SEGMENTS =           0.0000
           GW IRRIGATION =    71764456.0000             GW IRRIGATION =          38.3540
           SW IRRIGATION =    14547526.0000             SW IRRIGATION =          16.5942
        SYSTEM LOSSES GW =           0.0000          SYSTEM LOSSES GW =           0.0000
        SYSTEM LOSSES SW =           0.0000          SYSTEM LOSSES SW =           0.0000

               TOTAL OUT =    86311984.0000                 TOTAL OUT =          54.9482

                IN - OUT =        -288.0000                  IN - OUT =      -3.2806E-04

     PERCENT DISCREPANCY =          -0.00         PERCENT DISCREPANCY =          -0.00



1
  VOLUMETRIC BUDGET FOR ENTIRE MODEL AT END OF TIME STEP   10, STRESS PERIOD   5
  ------------------------------------------------------------------------------

     CUMULATIVE VOLUMES      L**3       RATES FOR THIS TIME STEP      L**3/T
     ------------------                 ------------------------

           IN:                                      IN:
           ---                                      ---
             STORAGE     =    78726240.0000               STORAGE     =          40.5176
       CONSTANT HEAD     =           0.0000         CONSTANT HEAD     =           0.0000
     HEAD DEP BOUNDS     =     2529227.5000       HEAD DEP BOUNDS     =           0.2857
      STREAM LEAKAGE     =   105644080.0000        STREAM LEAKAGE     =          11.1356
        UZF RECHARGE     =       73223.9531          UZF RECHARGE     =           0.0000
               GW ET     =           0.0000                 GW ET     =           0.0000
     SURFACE LEAKAGE     =           0.0000       SURFACE LEAKAGE     =           0.0000
           AG WELLS      =           0.0000             AG WELLS      =           0.0000

                TOTAL IN =   186972768.0000                  TOTAL IN =          51.9390

          OUT:                                     OUT:
          ----                                     ----
             STORAGE     =    18723728.0000               STORAGE     =           0.6239
       CONSTANT HEAD     =           0.0000         CONSTANT HEAD     =           0.0000
     HEAD DEP BOUNDS     =     2573561.7500       HEAD DEP BOUNDS     =           0.2920
      STREAM LEAKAGE     =    93880320.0000        STREAM LEAKAGE     =          12.6690
        UZF RECHARGE     =           0.0000          UZF RECHARGE     =           0.0000
               GW ET     =       34549.5586                 GW ET     =           0.0000
     SURFACE LEAKAGE     =           0.0000       SURFACE LEAKAGE     =           0.0000
           AG WELLS      =    71764456.0000             AG WELLS      =          38.3540

               TOTAL OUT =   186976608.0000                 TOTAL OUT =          51.9389

                IN - OUT =       -3840.0000                  IN - OUT =       7.6294E-05

     PERCENT DISCREPANCY =          -0.00         PERCENT DISCREPANCY =           0.00






         TIME SUMMARY AT END OF TIME STEP   10 IN STRESS PERIOD    5
                    SECONDS     MINUTES      HOURS       DAYS        YEARS
                    -----------------------------------------------------------
   TIME STEP LENGTH  87667.      1461.1      24.352      1.0147     2.77799E-03
 STRESS PERIOD TIME 8.76667E+05  14611.      243.52      10.147     2.77799E-02
         TOTAL TIME 8.85306E+06 1.47551E+05  2459.2      102.47     0.28054    
1
 
 SOLVING FOR HEAD 
                                                   Max.-Head-Change                         Max.-Flux-Residual
  Residual-Control   Outer-Iter.   Inner-Iter.     Column Row Layer    Maximum-Head-Change  Column Row Layer    Maximum-Flux-Residual          L2-NORM 
          0                 1           2             5    8     1       0.5048260192E-01       5    8    1         0.2769927690E+01      0.6288550600E+01
          0                 2           2             5    6     1      -0.8813001362E-01       5    8    1        -0.4855977305E+01      0.1173691462E+02
          0                 3           2             4    7     1       0.5606062308E-01       5    8    1         0.3105560158E+01      0.7595706189E+01
          0                 4           2             4    7     1      -0.8296792591E-01       5    8    1        -0.4705970606E+01      0.1152675613E+02
          0                 5           2             4    7     1       0.1022989139E-02       4    7    1         0.5962549624E-01      0.1460841462E+00
          0                 6           1             4    7     1       0.1504533330E-04       5    8    1         0.8786739593E-03      0.2154521966E-02

    ------------------------------------------------
       NWT REQUIRED            6 OUTER ITERATIONS 
       AND A TOTAL OF         11 INNER ITERATIONS.
    ------------------------------------------------

 NO OUTPUT CONTROL FOR STRESS PERIOD    5   TIME STEP   11
 
 SOLVING FOR HEAD 
                                                   Max.-Head-Change                         Max.-Flux-Residual
  Residual-Control   Outer-Iter.   Inner-Iter.     Column Row Layer    Maximum-Head-Change  Column Row Layer    Maximum-Flux-Residual          L2-NORM 
          0                 1           2             5    8     1       0.5131809822E-01       5    8    1         0.2814552195E+01      0.6416077245E+01
          0                 2           2             5    6     1      -0.8821339330E-01       5    8    1        -0.4860439660E+01      0.1175059292E+02
          0                 3           2             4    7     1       0.5606857711E-01       5    8    1         0.3105872534E+01      0.7596631484E+01
          0                 4           2             4    7     1      -0.8296843843E-01       5    8    1        -0.4705983438E+01      0.1152679406E+02
          0                 5           2             4    7     1       0.1022995457E-02       4    7    1         0.5962572297E-01      0.1460845944E+00
          0                 6           1             4    7     1       0.1504542638E-04       5    8    1         0.8786762426E-03      0.2154525010E-02

    ------------------------------------------------
       NWT REQUIRED            6 OUTER ITERATIONS 
       AND A TOTAL OF         11 INNER ITERATIONS.
    ------------------------------------------------

 NO OUTPUT CONTROL FOR STRESS PERIOD    5   TIME STEP   12
 
 SOLVING FOR HEAD 
                                                   Max.-Head-Change                         Max.-Flux-Residual
  Residual-Control   Outer-Iter.   Inner-Iter.     Column Row Layer    Maximum-Head-Change  Column Row Layer    Maximum-Flux-Residual          L2-NORM 
          0                 1           2             5    8     1       0.5213118799E-01       5    8    1         0.2857971624E+01      0.6541149944E+01
          0                 2           2             5    6     1      -0.8829454561E-01       5    8    1        -0.4864781508E+01      0.1176393364E+02
          0                 3           2             4    7     1       0.5607644011E-01       5    8    1         0.3106176474E+01      0.7597488462E+01
          0                 4           2             4    7     1      -0.8296894639E-01       5    8    1        -0.4705995923E+01      0.1152683085E+02
          0                 5           2             4    7     1       0.1023001720E-02       4    7    1         0.5962594716E-01      0.1460850003E+00
          0                 6           1             4    7     1       0.1504551812E-04       5    8    1         0.8786784736E-03      0.2154530806E-02

    ------------------------------------------------
       NWT REQUIRED            6 OUTER ITERATIONS 
       AND A TOTAL OF         11 INNER ITERATIONS.
    ------------------------------------------------

 NO OUTPUT CONTROL FOR STRESS PERIOD    5   TIME STEP   13
 
 SOLVING FOR HEAD 
                                                   Max.-Head-Change                         Max.-Flux-Residual
  Residual-Control   Outer-Iter.   Inner-Iter.     Column Row Layer    Maximum-Head-Change  Column Row Layer    Maximum-Flux-Residual          L2-NORM 
          0                 1           2             5    8     1       0.5292254160E-01       5    8    1         0.2900221231E+01      0.6663674053E+01
          0                 2           2             5    6     1      -0.8837352058E-01       5    8    1        -0.4869006375E+01      0.1177694711E+02
          0                 3           2             4    7     1       0.5608420946E-01       5    8    1         0.3106472225E+01      0.7598369850E+01
          0                 4           2             4    7     1      -0.8296944960E-01       5    8    1        -0.4706008070E+01      0.1152686702E+02
          0                 5           2             4    7     1       0.1023007923E-02       4    7    1         0.5962616876E-01      0.1460854309E+00
          0                 6           1             4    7     1       0.1504560998E-04       5    8    1         0.8786806393E-03      0.2154536088E-02

    ------------------------------------------------
       NWT REQUIRED            6 OUTER ITERATIONS 
       AND A TOTAL OF         11 INNER ITERATIONS.
    ------------------------------------------------

 NO OUTPUT CONTROL FOR STRESS PERIOD    5   TIME STEP   14
 
 SOLVING FOR HEAD 
                                                   Max.-Head-Change                         Max.-Flux-Residual
  Residual-Control   Outer-Iter.   Inner-Iter.     Column Row Layer    Maximum-Head-Change  Column Row Layer    Maximum-Flux-Residual          L2-NORM 
          0                 1           2             5    8     1       0.5369295402E-01       5    8    1         0.2941343667E+01      0.6783609544E+01
          0                 2           2             5    6     1      -0.8845039675E-01       5    8    1        -0.4873118525E+01      0.1178964415E+02
          0                 3           2             4    7     1       0.5609188114E-01       5    8    1         0.3106760086E+01      0.7599195809E+01
          0                 4           2             4    7     1      -0.8296994778E-01       5    8    1        -0.4706019892E+01      0.1152690216E+02
          0                 5           2             4    7     1       0.1023014065E-02       4    7    1         0.5962638762E-01      0.1460858252E+00
          0                 6           1             4    7     1       0.1504569981E-04       5    8    1         0.8786827329E-03      0.2154541194E-02

    ------------------------------------------------
       NWT REQUIRED            6 OUTER ITERATIONS 
       AND A TOTAL OF         11 INNER ITERATIONS.
    ------------------------------------------------

 NO OUTPUT CONTROL FOR STRESS PERIOD    5   TIME STEP   15
 
 SOLVING FOR HEAD 
                                                   Max.-Head-Change                         Max.-Flux-Residual
  Residual-Control   Outer-Iter.   Inner-Iter.     Column Row Layer    Maximum-Head-Change  Column Row Layer    Maximum-Flux-Residual          L2-NORM 
          0                 1           2             5    8     1       0.5444320000E-01       5    8    1         0.2981380156E+01      0.6900951504E+01
          0                 2           2             5    6     1      -0.8852525084E-01       5    8    1        -0.4877122082E+01      0.1180203643E+02
          0                 3           2             4    7     1       0.5609945531E-01       5    8    1         0.3107040345E+01      0.7599991785E+01
          0                 4           2             4    7     1      -0.8297044091E-01       5    8    1        -0.4706031400E+01      0.1152693642E+02
          0                 5           2             4    7     1       0.1023020144E-02       4    7    1         0.5962660372E-01      0.1460862062E+00
          0                 6           1             4    7     1       0.1504578898E-04       5    8    1         0.8786847729E-03      0.2154576476E-02

    ------------------------------------------------
       NWT REQUIRED            6 OUTER ITERATIONS 
       AND A TOTAL OF         11 INNER ITERATIONS.
    ------------------------------------------------

 NO OUTPUT CONTROL FOR STRESS PERIOD    5   TIME STEP   16
 
 SOLVING FOR HEAD 
                                                   Max.-Head-Change                         Max.-Flux-Residual
  Residual-Control   Outer-Iter.   Inner-Iter.     Column Row Layer    Maximum-Head-Change  Column Row Layer    Maximum-Flux-Residual          L2-NORM 
          0                 1           2             5    8     1       0.5517374198E-01       5    8    1         0.3020355108E+01      0.7015700393E+01
          0                 2           2             5    6     1      -0.8859815702E-01       5    8    1        -0.4881019486E+01      0.1181413349E+02
          0                 3           2             4    7     1       0.5610692873E-01       5    8    1         0.3107313173E+01      0.7600815321E+01
          0                 4           2             4    7     1      -0.8297092875E-01       5    8    1        -0.4706042603E+01      0.1152697020E+02
          0                 5           2             4    7     1       0.1023026158E-02       4    7    1         0.5962681703E-01      0.1460866070E+00
          0                 6           1             4    7     1       0.1504587781E-04       5    8    1         0.8786867488E-03      0.2154551768E-02

    ------------------------------------------------
       NWT REQUIRED            6 OUTER ITERATIONS 
       AND A TOTAL OF         11 INNER ITERATIONS.
    ------------------------------------------------

 NO OUTPUT CONTROL FOR STRESS PERIOD    5   TIME STEP   17
 
 SOLVING FOR HEAD 
                                                   Max.-Head-Change                         Max.-Flux-Residual
  Residual-Control   Outer-Iter.   Inner-Iter.     Column Row Layer    Maximum-Head-Change  Column Row Layer    Maximum-Flux-Residual          L2-NORM 
          0                 1           2             5    8     1       0.5588560860E-01       5    8    1         0.3058324037E+01      0.7127884717E+01
          0                 2           2             5    6     1      -0.8866915718E-01       5    8    1        -0.4884816290E+01      0.1182594526E+02
          0                 3           2             4    7     1       0.5611430126E-01       5    8    1         0.3107578958E+01      0.7601618073E+01
          0                 4           2             4    7     1      -0.8297141126E-01       5    8    1        -0.4706053515E+01      0.1152700318E+02
          0                 5           2             4    7     1       0.1023032106E-02       4    7    1         0.5962702749E-01      0.1460870014E+00
          0                 6           1             4    7     1       0.1504596507E-04       5    8    1         0.8786886933E-03      0.2154556228E-02

    ------------------------------------------------
       NWT REQUIRED            6 OUTER ITERATIONS 
       AND A TOTAL OF         11 INNER ITERATIONS.
    ------------------------------------------------

 NO OUTPUT CONTROL FOR STRESS PERIOD    5   TIME STEP   18
 
 SOLVING FOR HEAD 
                                                   Max.-Head-Change                         Max.-Flux-Residual
  Residual-Control   Outer-Iter.   Inner-Iter.     Column Row Layer    Maximum-Head-Change  Column Row Layer    Maximum-Flux-Residual          L2-NORM 
          0                 1           2             5    8     1       0.5657920684E-01       5    8    1         0.3095308752E+01      0.7237541425E+01
          0                 2           2             5    6     1      -0.8873835183E-01       5    8    1        -0.4888514673E+01      0.1183748175E+02
          0                 3           2             4    7     1       0.5612157127E-01       5    8    1         0.3107837854E+01      0.7602402590E+01
          0                 4           2             4    7     1      -0.8297188832E-01       5    8    1        -0.4706064143E+01      0.1152703542E+02
          0                 5           2             4    7     1       0.1023037987E-02       4    7    1         0.5962723503E-01      0.1460873865E+00
          0                 6           1             4    7     1       0.1504605188E-04       5    8    1         0.8786905707E-03      0.2154561297E-02

    ------------------------------------------------
       NWT REQUIRED            6 OUTER ITERATIONS 
       AND A TOTAL OF         11 INNER ITERATIONS.
    ------------------------------------------------

 NO OUTPUT CONTROL FOR STRESS PERIOD    5   TIME STEP   19
 
 SOLVING FOR HEAD 
                                                   Max.-Head-Change                         Max.-Flux-Residual
  Residual-Control   Outer-Iter.   Inner-Iter.     Column Row Layer    Maximum-Head-Change  Column Row Layer    Maximum-Flux-Residual          L2-NORM 
          0                 1           2             5    8     1       0.5725522838E-01       5    8    1         0.3131346125E+01      0.7344710256E+01
          0                 2           2             5    6     1      -0.8880577870E-01       5    8    1        -0.4892118323E+01      0.1184875164E+02
          0                 3           2             4    7     1       0.5612873827E-01       5    8    1         0.3108090118E+01      0.7603169769E+01
          0                 4           2             4    7     1      -0.8297235986E-01       5    8    1        -0.4706074497E+01      0.1152706695E+02
          0                 5           2             4    7     1       0.1023043801E-02       4    7    1         0.5962743971E-01      0.1460877643E+00
          0                 6           1             4    7     1       0.1504613701E-04       5    8    1         0.8786923959E-03      0.2154566416E-02

    ------------------------------------------------
       NWT REQUIRED            6 OUTER ITERATIONS 
       AND A TOTAL OF         11 INNER ITERATIONS.
    ------------------------------------------------

 NO OUTPUT CONTROL FOR STRESS PERIOD    5   TIME STEP   20
 
 SOLVING FOR HEAD 
                                                   Max.-Head-Change                         Max.-Flux-Residual
  Residual-Control   Outer-Iter.   Inner-Iter.     Column Row Layer    Maximum-Head-Change  Column Row Layer    Maximum-Flux-Residual          L2-NORM 
          0                 1           2             5    8     1       0.5791434256E-01       5    8    1         0.3166472023E+01      0.7449432814E+01
          0                 2           2             5    6     1      -0.8887150367E-01       5    8    1        -0.4895630827E+01      0.1185976310E+02
          0                 3           2             4    7     1       0.5613580201E-01       5    8    1         0.3108336002E+01      0.7603920123E+01
          0                 4           2             4    7     1      -0.8297282584E-01       5    8    1        -0.4706084589E+01      0.1152709779E+02
          0                 5           2             4    7     1       0.1023049545E-02       4    7    1         0.5962764140E-01      0.1460881337E+00
          0                 6           1             4    7     1       0.1504622136E-04       5    8    1         0.8786941753E-03      0.2154570923E-02

    ------------------------------------------------
       NWT REQUIRED            6 OUTER ITERATIONS 
       AND A TOTAL OF         11 INNER ITERATIONS.
    ------------------------------------------------

 NO OUTPUT CONTROL FOR STRESS PERIOD    5   TIME STEP   21
 
 SOLVING FOR HEAD 
                                                   Max.-Head-Change                         Max.-Flux-Residual
  Residual-Control   Outer-Iter.   Inner-Iter.     Column Row Layer    Maximum-Head-Change  Column Row Layer    Maximum-Flux-Residual          L2-NORM 
          0                 1           2             5    8     1       0.5855732772E-01       5    8    1         0.3200729030E+01      0.7551785198E+01
          0                 2           2             5    6     1      -0.8893559048E-01       5    8    1        -0.4899056444E+01      0.1187052593E+02
          0                 3           2             4    7     1       0.5614276250E-01       5    8    1         0.3108575803E+01      0.7604654248E+01
          0                 4           2             4    7     1      -0.8297328624E-01       5    8    1        -0.4706094429E+01      0.1152712796E+02
          0                 5           2             4    7     1       0.1023055220E-02       4    7    1         0.5962784018E-01      0.1460884958E+00
          0                 6           1             4    7     1       0.1504630515E-04       5    8    1         0.8786959195E-03      0.2154575676E-02

    ------------------------------------------------
       NWT REQUIRED            6 OUTER ITERATIONS 
       AND A TOTAL OF         11 INNER ITERATIONS.
    ------------------------------------------------

 NO OUTPUT CONTROL FOR STRESS PERIOD    5   TIME STEP   22
 
 SOLVING FOR HEAD 
                                                   Max.-Head-Change                         Max.-Flux-Residual
  Residual-Control   Outer-Iter.   Inner-Iter.     Column Row Layer    Maximum-Head-Change  Column Row Layer    Maximum-Flux-Residual          L2-NORM 
          0                 1           2             5    8     1       0.5918435884E-01       5    8    1         0.3234125998E+01      0.7651811360E+01
          0                 2           2             5    6     1      -0.8899809985E-01       5    8    1        -0.4902396059E+01      0.1188104656E+02
          0                 3           2             4    7     1       0.5614961896E-01       5    8    1         0.3108809584E+01      0.7605372518E+01
          0                 4           2             4    7     1      -0.8297374097E-01       5    8    1        -0.4706104022E+01      0.1152715748E+02
          0                 5           2             4    7     1       0.1023060826E-02       4    7    1         0.5962803602E-01      0.1460888505E+00
          0                 6           1             4    7     1       0.1504638737E-04       5    8    1         0.8786975925E-03      0.2154580001E-02

    ------------------------------------------------
       NWT REQUIRED            6 OUTER ITERATIONS 
       AND A TOTAL OF         11 INNER ITERATIONS.
    ------------------------------------------------

 NO OUTPUT CONTROL FOR STRESS PERIOD    5   TIME STEP   23
 
 SOLVING FOR HEAD 
                                                   Max.-Head-Change                         Max.-Flux-Residual
  Residual-Control   Outer-Iter.   Inner-Iter.     Column Row Layer    Maximum-Head-Change  Column Row Layer    Maximum-Flux-Residual          L2-NORM 
          0                 1           2             5    8     1       0.5979647087E-01       5    8    1         0.3266719266E+01      0.7749580689E+01
          0                 2           2             5    6     1      -0.8905909109E-01       5    8    1        -0.4905655305E+01      0.1189133440E+02
          0                 3           2             4    7     1       0.5615637178E-01       5    8    1         0.3109037739E+01      0.7606075539E+01
          0                 4           2             4    7     1      -0.8297419004E-01       5    8    1        -0.4706113383E+01      0.1152718637E+02
          0                 5           2             4    7     1       0.1023066362E-02       4    7    1         0.5962822890E-01      0.1460891990E+00
          0                 6           1             4    7     1       0.1504646892E-04       5    8    1         0.8786992471E-03      0.2154590282E-02

    ------------------------------------------------
       NWT REQUIRED            6 OUTER ITERATIONS 
       AND A TOTAL OF         11 INNER ITERATIONS.
    ------------------------------------------------

 NO OUTPUT CONTROL FOR STRESS PERIOD    5   TIME STEP   24
 
 SOLVING FOR HEAD 
                                                   Max.-Head-Change                         Max.-Flux-Residual
  Residual-Control   Outer-Iter.   Inner-Iter.     Column Row Layer    Maximum-Head-Change  Column Row Layer    Maximum-Flux-Residual          L2-NORM 
          0                 1           2             5    8     1       0.6039379577E-01       5    8    1         0.3298515241E+01      0.7845146728E+01
          0                 2           2             5    7     1      -0.8912177500E-01       5    8    1        -0.4908834823E+01      0.1190139385E+02
          0                 3           2             4    7     1       0.5616302159E-01       5    8    1         0.3109260313E+01      0.7606751409E+01
          0                 4           2             4    7     1      -0.8297463356E-01       5    8    1        -0.4706122513E+01      0.1152721458E+02
          0                 5           2             4    7     1       0.1023071830E-02       4    7    1         0.5962841885E-01      0.1460895246E+00
          0                 6           1             4    7     1       0.1504654923E-04       5    8    1         0.8787008667E-03      0.2154589115E-02

    ------------------------------------------------
       NWT REQUIRED            6 OUTER ITERATIONS 
       AND A TOTAL OF         11 INNER ITERATIONS.
    ------------------------------------------------

 NO OUTPUT CONTROL FOR STRESS PERIOD    5   TIME STEP   25
 
 SOLVING FOR HEAD 
                                                   Max.-Head-Change                         Max.-Flux-Residual
  Residual-Control   Outer-Iter.   Inner-Iter.     Column Row Layer    Maximum-Head-Change  Column Row Layer    Maximum-Flux-Residual          L2-NORM 
          0                 1           2             5    8     1       0.6097702404E-01       5    8    1         0.3329552204E+01      0.7938591752E+01
          0                 2           2             5    7     1      -0.8920070543E-01       5    8    1        -0.4911938442E+01      0.1191123837E+02
          0                 3           2             4    7     1       0.5616956880E-01       5    8    1         0.3109477573E+01      0.7607425011E+01
          0                 4           2             4    7     1      -0.8297507133E-01       5    8    1        -0.4706131424E+01      0.1152724226E+02
          0                 5           2             4    7     1       0.1023077226E-02       4    7    1         0.5962860584E-01      0.1460898579E+00
          0                 6           1             4    7     1       0.1504662865E-04       5    8    1         0.8787024149E-03      0.2154592887E-02

    ------------------------------------------------
       NWT REQUIRED            6 OUTER ITERATIONS 
       AND A TOTAL OF         11 INNER ITERATIONS.
    ------------------------------------------------

 NO OUTPUT CONTROL FOR STRESS PERIOD    5   TIME STEP   26
 
 SOLVING FOR HEAD 
                                                   Max.-Head-Change                         Max.-Flux-Residual
  Residual-Control   Outer-Iter.   Inner-Iter.     Column Row Layer    Maximum-Head-Change  Column Row Layer    Maximum-Flux-Residual          L2-NORM 
          0                 1           2             5    8     1       0.6154668744E-01       5    8    1         0.3359858273E+01      0.8030026237E+01
          0                 2           2             5    7     1      -0.8927787884E-01       5    8    1        -0.4914968973E+01      0.1192086770E+02
          0                 3           2             4    7     1       0.5617601339E-01       5    8    1         0.3109689717E+01      0.7608081920E+01
          0                 4           2             4    7     1      -0.8297550342E-01       5    8    1        -0.4706140125E+01      0.1152726936E+02
          0                 5           2             4    7     1       0.1023082553E-02       4    7    1         0.5962878995E-01      0.1460901839E+00
          0                 6           1             4    7     1       0.1504670717E-04       5    8    1         0.8787039387E-03      0.2154597339E-02

    ------------------------------------------------
       NWT REQUIRED            6 OUTER ITERATIONS 
       AND A TOTAL OF         11 INNER ITERATIONS.
    ------------------------------------------------

 NO OUTPUT CONTROL FOR STRESS PERIOD    5   TIME STEP   27
 
 SOLVING FOR HEAD 
                                                   Max.-Head-Change                         Max.-Flux-Residual
  Residual-Control   Outer-Iter.   Inner-Iter.     Column Row Layer    Maximum-Head-Change  Column Row Layer    Maximum-Flux-Residual          L2-NORM 
          0                 1           2             5    8     1       0.6210313812E-01       5    8    1         0.3389452981E+01      0.8119438709E+01
          0                 2           2             5    7     1      -0.8935338797E-01       5    8    1        -0.4917928370E+01      0.1193029200E+02
          0                 3           2             4    7     1       0.5618235629E-01       5    8    1         0.3109896882E+01      0.7608727877E+01
          0                 4           2             4    7     1      -0.8297592988E-01       5    8    1        -0.4706148620E+01      0.1152729590E+02
          0                 5           2             4    7     1       0.1023087811E-02       4    7    1         0.5962897112E-01      0.1460905044E+00
          0                 6           1             4    7     1       0.1504678424E-04       5    8    1         0.8787054292E-03      0.2154601614E-02

    ------------------------------------------------
       NWT REQUIRED            6 OUTER ITERATIONS 
       AND A TOTAL OF         11 INNER ITERATIONS.
    ------------------------------------------------

 NO OUTPUT CONTROL FOR STRESS PERIOD    5   TIME STEP   28
 
 SOLVING FOR HEAD 
                                                   Max.-Head-Change                         Max.-Flux-Residual
  Residual-Control   Outer-Iter.   Inner-Iter.     Column Row Layer    Maximum-Head-Change  Column Row Layer    Maximum-Flux-Residual          L2-NORM 
          0                 1           2             5    8     1       0.6265249932E-01       5    8    1         0.3418370383E+01      0.8228806969E+01
          0                 2           2             5    7     1      -0.8942779948E-01       5    8    1        -0.4920820124E+01      0.1197531184E+02
          0                 3           2             4    7     1       0.8905426775E-01       5    8    1         0.4923443304E+01      0.1205084325E+02
          0                 4           2             4    7     1      -0.1372230761E+00       5    8    1        -0.7782595073E+01      0.1906305308E+02
          0                 5           2             4    7     1       0.2073453328E-02       4    7    1         0.1208494166E+00      0.2960357814E+00
          0                 6           2             4    7     1      -0.5850270185E-03       4    7    1        -0.3504462175E-01      0.8583822753E-01
          0                 7           1             4    7     1      -0.2414188940E-04       5    8    1        -0.1446548207E-02      0.3543035866E-02

    ------------------------------------------------
       NWT REQUIRED            7 OUTER ITERATIONS 
       AND A TOTAL OF         13 INNER ITERATIONS.
    ------------------------------------------------

 NO OUTPUT CONTROL FOR STRESS PERIOD    5   TIME STEP   29
 
 SOLVING FOR HEAD 
                                                   Max.-Head-Change                         Max.-Flux-Residual
  Residual-Control   Outer-Iter.   Inner-Iter.     Column Row Layer    Maximum-Head-Change  Column Row Layer    Maximum-Flux-Residual          L2-NORM 
          0                 1           2             5    8     1       0.6385586877E-01       5    8    1         0.3482877281E+01      0.8700418285E+01
          0                 2           2             4    7     1      -0.1457605158E+00       5    8    1        -0.7966387750E+01      0.1948960857E+02
          0                 3           2             4    7     1       0.1479992064E+00       5    8    1         0.8175746533E+01      0.2001697037E+02
          0                 4           2             4    7     1      -0.2282934531E+00       5    6    1        -0.1294734625E+02      0.3172644517E+02
          0                 5           2             4    7     1       0.6784641092E-01       4    7    1         0.3954621805E+01      0.9687315083E+01
          0                 6           2             4    7     1      -0.1037977326E+00       4    7    1        -0.6217771389E+01      0.1523030453E+02
          0                 7           2             4    7     1      -0.4283416207E-02       5    8    1        -0.2566618653E+00      0.6286413919E+00
          0                 8           2             4    7     1      -0.1767179215E-03       5    8    1        -0.1058997337E-01      0.2593792108E-01
          0                 9           1             4    7     1      -0.7288956498E-05       5    8    1        -0.4368095679E-03      0.1069880078E-02

    ------------------------------------------------
       NWT REQUIRED            9 OUTER ITERATIONS 
       AND A TOTAL OF         17 INNER ITERATIONS.
    ------------------------------------------------

 NO OUTPUT CONTROL FOR STRESS PERIOD    5   TIME STEP   30



 STREAM LISTING     PERIOD      5   STEP       30

 LAYER ROW COL. STREAM  RCH.  FLOW INTO     FLOW TO   FLOW OUT OF   OVRLND.     DIRECT     STREAM       STREAM     STREAM     STREAM   STREAMBED  STREAMBED
                SEG.NO.  NO.  STRM. RCH.    AQUIFER    STRM. RCH.    RUNOFF     PRECIP       ET          HEAD       DEPTH      WIDTH   CONDCTNC.   GRADIENT

   1    1    1     1     1    7.4250E+01  4.1989E-01   7.3830E+01  0.000E+00  0.000E+00  0.000E+00  1.09474E+03  1.690E+00  1.990E+01  8.954E-02  1.563E+00
   1    2    2     1     2    7.3830E+01  6.5045E-01   7.3180E+01  0.000E+00  0.000E+00  0.000E+00  1.08974E+03  1.684E+00  1.984E+01  1.389E-01  1.561E+00
   1    3    3     1     3    7.3180E+01  5.5490E-01   7.2625E+01  0.000E+00  0.000E+00  0.000E+00  1.08410E+03  1.677E+00  1.977E+01  1.186E-01  1.559E+00
   1    3    4     1     4    7.2625E+01  5.1113E-01   7.2114E+01  0.000E+00  0.000E+00  0.000E+00  1.07908E+03  1.671E+00  1.972E+01  1.094E-01  1.557E+00
   1    4    5     2     1    7.0114E+01  4.0857E-01   6.9705E+01  0.000E+00  0.000E+00  0.000E+00  1.07417E+03  2.238E+00  1.200E+01  7.800E-02  1.746E+00
   1    5    6     2     2    6.9705E+01  3.1387E-01   6.9391E+01  0.000E+00  0.000E+00  0.000E+00  1.06874E+03  2.231E+00  1.200E+01  6.000E-02  1.744E+00
   1    6    6     2     3    6.9391E+01  3.1350E-01   6.9078E+01  0.000E+00  0.000E+00  0.000E+00  1.06402E+03  2.225E+00  1.200E+01  6.000E-02  1.742E+00
   1    7    6     2     4    6.9078E+01  3.1314E-01   6.8765E+01  0.000E+00  0.000E+00  0.000E+00  1.05929E+03  2.219E+00  1.200E+01  6.000E-02  1.740E+00
   1    8    6     2     5    6.8765E+01  3.1278E-01   6.8452E+01  0.000E+00  0.000E+00  0.000E+00  1.05457E+03  2.213E+00  1.200E+01  6.000E-02  1.738E+00
   1    3    5     3     1    2.0000E+00  2.8252E-01   1.7175E+00  0.000E+00  0.000E+00  0.000E+00  1.07555E+03  1.909E+00  9.636E+00  7.227E-02  1.955E+00
   1    3    6     3     2    1.7175E+00  2.4905E-01   1.4684E+00  0.000E+00  0.000E+00  0.000E+00  1.07264E+03  1.727E+00  8.909E+00  6.682E-02  1.864E+00
   1    3    7     3     3    1.4684E+00  1.9718E-01   1.2712E+00  0.000E+00  0.000E+00  0.000E+00  1.06987E+03  1.555E+00  8.218E+00  5.547E-02  1.777E+00
   1    4    8     3     4    1.2712E+00  2.2567E-01   1.0456E+00  0.000E+00  0.000E+00  0.000E+00  1.06682E+03  1.364E+00  7.455E+00  6.709E-02  1.682E+00
   1    5    8     3     5    1.0456E+00  1.5790E-01   8.8768E-01  0.000E+00  0.000E+00  0.000E+00  1.06362E+03  1.164E+00  6.655E+00  4.991E-02  1.582E+00
   1    6    8     3     6    8.8768E-01  5.5980E-02   8.3170E-01  0.000E+00  0.000E+00  0.000E+00  1.06158E+03  1.036E+00  6.145E+00  1.844E-02  1.518E+00
   1    5   10     4     1    1.0000E+01  9.0919E-02   9.9091E+00  0.000E+00  0.000E+00  0.000E+00  1.07836E+03  6.368E-01  1.000E+01  2.500E-02  1.212E+00
   1    5    9     4     2    9.9091E+00  1.8158E-01   9.7275E+00  0.000E+00  0.000E+00  0.000E+00  1.07154E+03  6.315E-01  1.000E+01  5.000E-02  1.211E+00
   1    6    8     4     3    9.7275E+00  1.2689E-01   9.6006E+00  0.000E+00  0.000E+00  0.000E+00  1.06381E+03  6.256E-01  1.000E+01  3.500E-02  1.209E+00
   1    6    8     5     1    1.0432E+01  2.2686E-01   1.0205E+01  0.000E+00  0.000E+00  0.000E+00  1.05868E+03  6.790E-01  1.542E+01  6.166E-02  1.226E+00
   1    7    7     5     2    1.0205E+01  2.7894E-01   9.9265E+00  0.000E+00  0.000E+00  0.000E+00  1.05417E+03  6.732E-01  1.519E+01  7.594E-02  1.224E+00
   1    8    7     5     3    9.9265E+00  1.9221E-01   9.7343E+00  0.000E+00  0.000E+00  0.000E+00  1.04992E+03  6.676E-01  1.497E+01  5.241E-02  1.223E+00
   1    8    6     5     4    9.7343E+00  1.3577E-01   9.5985E+00  0.000E+00  0.000E+00  0.000E+00  1.04691E+03  6.637E-01  1.482E+01  3.706E-02  1.221E+00
   1    9    6     6     1    9.5985E+00  2.2097E-01   9.3776E+00  0.000E+00  0.000E+00  0.000E+00  1.04341E+03  6.828E-01  1.200E+01  6.000E-02  1.228E+00
   1   10    7     6     2    9.3776E+00  2.2039E-01   9.1572E+00  0.000E+00  0.000E+00  0.000E+00  1.03885E+03  6.732E-01  1.200E+01  6.000E-02  1.224E+00
   1   11    7     6     3    9.1572E+00  2.1981E-01   8.9374E+00  0.000E+00  0.000E+00  0.000E+00  1.03430E+03  6.636E-01  1.200E+01  6.000E-02  1.221E+00
   1   12    7     6     4    8.9374E+00  2.1923E-01   8.7181E+00  0.000E+00  0.000E+00  0.000E+00  1.02974E+03  6.539E-01  1.200E+01  6.000E-02  1.218E+00
   1   13    7     6     5    8.7181E+00 -1.2763E-01   8.8458E+00  0.000E+00  0.000E+00  0.000E+00  1.02656E+03  6.518E-01  1.200E+01  2.400E-01 -1.773E-01
   1   14    9     7     1    1.5000E+02  1.3358E+00   1.4866E+02  0.000E+00  0.000E+00  0.000E+00  1.03987E+03  2.288E+00  5.529E+01  5.593E-01  7.961E-01
   1   13    8     7     2    1.4866E+02  1.8266E+00   1.4684E+02  0.000E+00  0.000E+00  0.000E+00  1.03478E+03  2.279E+00  5.526E+01  6.148E-01  9.904E-01
   1   13    7     7     3    1.4684E+02  1.4504E+00   1.4539E+02  0.000E+00  0.000E+00  0.000E+00  1.02969E+03  2.271E+00  5.522E+01  5.585E-01  8.657E-01
   1   13    6     8     1    1.5423E+02  8.0111E-01   1.5343E+02  0.000E+00  0.000E+00  0.000E+00  1.02472E+03  2.844E+00  4.123E+01  4.202E-01  6.355E-01
   1   13    5     8     2    1.5343E+02  7.4615E-02   1.5336E+02  0.000E+00  0.000E+00  0.000E+00  1.01847E+03  2.841E+00  4.119E+01  4.197E-01  5.926E-02
   1   13    4     8     3    1.5336E+02 -2.7861E+00   1.5614E+02  0.000E+00  0.000E+00  0.000E+00  1.01222E+03  2.850E+00  4.132E+01  4.211E+00 -2.205E-01
   1   13    3     8     4    1.5614E+02 -3.8531E+00   1.6000E+02  0.000E+00  0.000E+00  0.000E+00  1.00600E+03  2.873E+00  4.165E+01  4.245E+00 -3.026E-01
   1   13    2     8     5    1.6000E+02 -2.7185E+00   1.6271E+02  0.000E+00  0.000E+00  0.000E+00  9.99770E+02  2.895E+00  4.198E+01  4.278E+00 -2.118E-01
   1   13    1     8     6    1.6271E+02 -2.1121E+00   1.6483E+02  0.000E+00  0.000E+00  0.000E+00  9.94786E+02  2.911E+00  4.221E+01  2.581E+00 -2.728E-01
   1    8    6     9     1    6.8452E+01  0.0000E+00   6.8452E+01  0.000E+00  0.000E+00  0.000E+00  1.08594E+03  7.186E+00  4.000E+00  0.000E+00  3.395E+00
   1    8    5     9     2    6.8452E+01  0.0000E+00   6.8452E+01  0.000E+00  0.000E+00  0.000E+00  1.08544E+03  7.186E+00  4.000E+00  0.000E+00  3.395E+00





UNSATURATED ZONE PACKAGE VOLUMETRIC BUDGET FOR  TIME STEP    30 STRESS PERIOD    5
  ------------------------------------------------------------------------------



     CUMULATIVE VOLUMES      L**3       RATES FOR THIS TIME STEP      L**3/T
     ------------------                 ------------------------

           IN:                                      IN:
           ---                                      ---
        INFILTRATION =   202367686.3696          INFILTRATION =         159.8914

          OUT:                                     OUT:
          ----                                     ----
              UZF ET =    18615489.4355                UZF ET =           4.5675
        UZF RECHARGE =       73224.0000          UZF RECHARGE =       0.0000E+00

            IN - OUT =   183678972.9341              IN - OUT =         155.3239

          STORAGE:                                 STORAGE:
          --------                                 --------
      STORAGE CHANGE =   183678772.1197        STORAGE CHANGE =         155.3239

 PERCENT DISCREPANCY IS DIFFERENCE BETWEEN IN-OUT MINUS CHANGE IN STORAGE
 DIVIDED BY THE AVERAGE OF IN AND OUT TIMES 100

 PERCENT DISCREPANCY =           0.00     PERCENT DISCREPANCY =          -0.00






1
  VOLUMETRIC BUDGET FOR AGRICULTURAL FIELDS AT  END OF TIME STEP   30, STRESS PERIOD   5
  ------------------------------------------------------------------------------

     CUMULATIVE VOLUMES      L**3       RATES FOR THIS TIME STEP      L**3/T
     ------------------                 ------------------------

           IN:                                      IN:
           ---                                      ---
           AG WELLS      =   144224272.0000             AG WELLS      =          90.5905
      DIVERSION SEGMENTS =    49153552.0000        DIVERSION SEGMENTS =          68.4521
           GW IRRIGATION =           0.0000             GW IRRIGATION =           0.0000
           SW IRRIGATION =           0.0000             SW IRRIGATION =           0.0000
        SYSTEM LOSSES GW =           0.0000          SYSTEM LOSSES GW =           0.0000
        SYSTEM LOSSES SW =           0.0000          SYSTEM LOSSES SW =           0.0000

                TOTAL IN =   193377824.0000                  TOTAL IN =         159.0425

          OUT:                                     OUT:
          ----                                     ----
           AG WELLS      =           0.0000             AG WELLS      =           0.0000
      DIVERSION SEGMENTS =           0.0000        DIVERSION SEGMENTS =           0.0000
           GW IRRIGATION =   144224272.0000             GW IRRIGATION =          90.5905
           SW IRRIGATION =    49154536.0000             SW IRRIGATION =          68.4534
        SYSTEM LOSSES GW =           0.0000          SYSTEM LOSSES GW =           0.0000
        SYSTEM LOSSES SW =           0.0000          SYSTEM LOSSES SW =           0.0000

               TOTAL OUT =   193378816.0000                 TOTAL OUT =         159.0439

                IN - OUT =        -992.0000                  IN - OUT =      -1.3733E-03

     PERCENT DISCREPANCY =          -0.00         PERCENT DISCREPANCY =          -0.00



1
  VOLUMETRIC BUDGET FOR ENTIRE MODEL AT END OF TIME STEP   30, STRESS PERIOD   5
  ------------------------------------------------------------------------------

     CUMULATIVE VOLUMES      L**3       RATES FOR THIS TIME STEP      L**3/T
     ------------------                 ------------------------

           IN:                                      IN:
           ---                                      ---
             STORAGE     =   153437456.0000               STORAGE     =          90.9993
       CONSTANT HEAD     =           0.0000         CONSTANT HEAD     =           0.0000
     HEAD DEP BOUNDS     =     3030241.7500       HEAD DEP BOUNDS     =           0.2858
      STREAM LEAKAGE     =   125362808.0000        STREAM LEAKAGE     =          12.5686
        UZF RECHARGE     =       73223.9531          UZF RECHARGE     =           0.0000
               GW ET     =           0.0000                 GW ET     =           0.0000
     SURFACE LEAKAGE     =           0.0000       SURFACE LEAKAGE     =           0.0000
           AG WELLS      =           0.0000             AG WELLS      =           0.0000

                TOTAL IN =   281903712.0000                  TOTAL IN =         103.8536

          OUT:                                     OUT:
          ----                                     ----
             STORAGE     =    19674496.0000               STORAGE     =           1.3768
       CONSTANT HEAD     =           0.0000         CONSTANT HEAD     =           0.0000
     HEAD DEP BOUNDS     =     3082345.5000       HEAD DEP BOUNDS     =           0.2890
      STREAM LEAKAGE     =   114891872.0000        STREAM LEAKAGE     =          11.5975
        UZF RECHARGE     =           0.0000          UZF RECHARGE     =           0.0000
               GW ET     =       34549.5586                 GW ET     =           0.0000
     SURFACE LEAKAGE     =           0.0000       SURFACE LEAKAGE     =           0.0000
           AG WELLS      =   144224272.0000             AG WELLS      =          90.5905

               TOTAL OUT =   281907520.0000                 TOTAL OUT =         103.8537

                IN - OUT =       -3808.0000                  IN - OUT =      -1.0681E-04

     PERCENT DISCREPANCY =          -0.00         PERCENT DISCREPANCY =          -0.00






         TIME SUMMARY AT END OF TIME STEP   30 IN STRESS PERIOD    5
                    SECONDS     MINUTES      HOURS       DAYS        YEARS
                    -----------------------------------------------------------
   TIME STEP LENGTH  87667.      1461.1      24.352      1.0147     2.77799E-03
 STRESS PERIOD TIME 2.63000E+06  43833.      730.56      30.440     8.33397E-02
         TOTAL TIME 1.06064E+07 1.76773E+05  2946.2      122.76     0.33610    
1
1
                            STRESS PERIOD NO.    6, LENGTH =   2630000.    
                            -----------------------------------------------

                              NUMBER OF TIME STEPS =    30

                               MULTIPLIER FOR DELT =     1.000

                            INITIAL TIME STEP SIZE =   87666.66    

 REUSING NON-PARAMETER GHB CELLS FROM LAST STRESS PERIOD

      2 GHB CELLS

 REUSING STREAM SEGMENT DATA FROM LAST STRESS PERIOD



            AREAL INFILTRATION RATE
 READING ON UNIT   19 WITH FORMAT: (FREE)              

            1           2           3           4           5           6           7           8           9          10
 ........................................................................................................................
   1   1.0000E-10  2.0000E-10   0.000       0.000       0.000       0.000       0.000       0.000       0.000       0.000    
   2   2.0000E-10  1.0000E-10  2.0000E-10   0.000       0.000      8.0000E-10  8.0000E-10  5.0000E-10   0.000       0.000    
   3    0.000      5.0000E-10  1.0000E-10  1.0000E-10  8.0000E-10  8.0000E-10  5.0000E-10  5.0000E-10   0.000       0.000    
   4   8.0000E-10  5.0000E-10  1.0000E-10  1.0000E-10  1.0000E-10  1.0000E-10  1.0000E-10  1.0000E-10  2.0000E-10   0.000    
   5   8.0000E-10  5.0000E-10  1.0000E-10  1.0000E-10  1.0000E-10  1.0000E-10  1.0000E-10  1.0000E-10  1.0000E-10  1.0000E-10
   6   8.0000E-10  5.0000E-10  5.0000E-10  2.0000E-10  2.0000E-10  1.0000E-10  1.0000E-10  1.0000E-10  1.0000E-10  5.0000E-10
   7   8.0000E-10  5.0000E-10  5.0000E-10  2.0000E-10  2.0000E-10  1.0000E-10  1.0000E-10  2.0000E-10  2.0000E-10   0.000    
   8    0.000      5.0000E-10  5.0000E-10  2.0000E-10  2.0000E-10  1.0000E-10  1.0000E-10  2.0000E-10  5.0000E-10   0.000    
   9    0.000      5.0000E-10  5.0000E-10  2.0000E-10  2.0000E-10  1.0000E-10  1.0000E-10  2.0000E-10  5.0000E-10   0.000    
  10    0.000      5.0000E-10  5.0000E-10  2.0000E-10  2.0000E-10  1.0000E-10  1.0000E-10  2.0000E-10  5.0000E-10  8.0000E-10
  11    0.000      1.0000E-10  1.0000E-10  1.0000E-10  1.0000E-10  1.0000E-10  1.0000E-10  2.0000E-10  5.0000E-10   0.000    
  12   1.0000E-10  1.0000E-10  1.0000E-10  1.0000E-10  1.0000E-10  1.0000E-10  1.0000E-10  1.0000E-10  2.0000E-10   0.000    
  13   1.0000E-10  1.0000E-10  2.0000E-10  2.0000E-10  2.0000E-10  2.0000E-10  2.0000E-10  1.0000E-10  1.0000E-10   0.000    
  14    0.000      2.0000E-10  5.0000E-10  5.0000E-10  5.0000E-10  5.0000E-10  5.0000E-10  2.0000E-10  1.0000E-10   0.000    
  15    0.000       0.000      8.0000E-10  8.0000E-10  8.0000E-10  8.0000E-10   0.000       0.000       0.000       0.000    

                  ET RATE =  5.000000E-08

 USING ET EXTINCTION DEPTH FROM PREVIOUS STRESS PERIOD. CURRENT PERIOD IS:       6

 USING EXTINCTION WATER CONTENT FROM PREVIOUS STRESS PERIOD. CURRENT PERIOD IS:       6

 USING AIR ENTRY PRESSURE FROM PREVIOUS STRESS PERIOD. CURRENT PERIOD IS:       6

 USING ROOT PRESSURE HEAD FROM PREVIOUS STRESS PERIOD. CURRENT PERIOD IS:       6

 USING ROOT ACTIVITY FROM PREVIOUS STRESS PERIOD. CURRENT PERIOD IS:       6

 PROCESSING AG STRESS PERIOD DATA

 READING AG STRESS PERIOD DATA

 READING IRRIGATION SEGMENT

 READING IRRIGATION WELL

 READING SUPPLEMENTAL WELL

 END PROCESSING AG STRESS PERIOD DATA OPTIONS
 
 SOLVING FOR HEAD 
                                                   Max.-Head-Change                         Max.-Flux-Residual
  Residual-Control   Outer-Iter.   Inner-Iter.     Column Row Layer    Maximum-Head-Change  Column Row Layer    Maximum-Flux-Residual          L2-NORM 
          0                 1           2             5    8     1       0.6907092683E-01       5    8    1         0.3769657411E+01      0.9205272195E+01
          0                 2           2             5    8     1      -0.6718643121E-02       5    8    1        -0.3769605725E+00      0.9527533475E+00
          0                 3           2             5    8     1       0.4575154184E-03       5    8    1         0.2638730039E-01      0.6653703934E-01
          0                 4           1             5    8     1      -0.1820496350E-04       5    8    1        -0.1079241857E-02      0.2711978677E-02

    ------------------------------------------------
       NWT REQUIRED            4 OUTER ITERATIONS 
       AND A TOTAL OF          7 INNER ITERATIONS.
    ------------------------------------------------

 NO OUTPUT CONTROL FOR STRESS PERIOD    6   TIME STEP    1
 
 SOLVING FOR HEAD 
                                                   Max.-Head-Change                         Max.-Flux-Residual
  Residual-Control   Outer-Iter.   Inner-Iter.     Column Row Layer    Maximum-Head-Change  Column Row Layer    Maximum-Flux-Residual          L2-NORM 
          0                 1           2             5    8     1       0.6582871907E-01       5    8    1         0.3589378930E+01      0.8915288870E+01
          0                 2           2             5    6     1      -0.4401182962E-01       5    8    1        -0.2428518031E+01      0.5869612673E+01
          0                 3           2             4    7     1       0.4041031051E-01       5    8    1         0.2239580858E+01      0.5476199112E+01
          0                 4           2             4    7     1      -0.6202810110E-01       5    8    1        -0.3518123058E+01      0.8657123320E+01
          0                 5           2             4    7     1       0.5955137346E-01       4    7    1         0.3471121191E+01      0.8502433213E+01
          0                 6           2             4    7     1      -0.9385517486E-01       4    7    1        -0.5622169093E+01      0.1383470047E+02
          0                 7           2             4    7     1       0.8839361461E-01       4    7    1         0.5441209077E+01      0.1332861360E+02
          0                 8           2             4    7     1      -0.1427373714E+00       4    7    1        -0.9028255878E+01      0.2211462493E+02
          0                 9           2             4    7     1      -0.9350716718E-02       5    8    1        -0.5915337027E+00      0.1448874897E+01
          0                10           2             4    7     1      -0.7125149591E-02       5    8    1        -0.4506746808E+00      0.1103908904E+01
                                                   Max.-Head-Change                         Max.-Flux-Residual
  Residual-Control   Outer-Iter.   Inner-Iter.     Column Row Layer    Maximum-Head-Change  Column Row Layer    Maximum-Flux-Residual          L2-NORM 
          0                11           2             4    7     1      -0.6554998596E-03       5    8    1        -0.4146569686E-01      0.1015644251E+00
          0                12           1             4    7     1      -0.6029812446E-04       5    8    1        -0.3814637645E-02      0.9343248098E-02

    ------------------------------------------------
       NWT REQUIRED           12 OUTER ITERATIONS 
       AND A TOTAL OF         23 INNER ITERATIONS.
    ------------------------------------------------

 NO OUTPUT CONTROL FOR STRESS PERIOD    6   TIME STEP    2
 
 SOLVING FOR HEAD 
                                                   Max.-Head-Change                         Max.-Flux-Residual
  Residual-Control   Outer-Iter.   Inner-Iter.     Column Row Layer    Maximum-Head-Change  Column Row Layer    Maximum-Flux-Residual          L2-NORM 
          0                 1           2             5    8     1       0.6796628001E-01       5    8    1         0.3706293233E+01      0.9180148769E+01
          0                 2           2             4    7     1      -0.3560727768E+00       5    8    1        -0.1925961090E+02      0.4712220929E+02
          0                 3           2             4    7     1       0.2310240909E+00       5    8    1         0.1275667679E+02      0.3123795024E+02
          0                 4           2             4    7     1      -0.3422629666E+00       5    6    1        -0.1941058998E+02      0.4754578948E+02
          0                 5           2             4    7     1       0.4219546127E-02       4    7    1         0.2459250655E+00      0.6025057950E+00
          0                 6           1             4    7     1       0.6205773202E-04       5    8    1         0.3623925251E-02      0.8886158467E-02

    ------------------------------------------------
       NWT REQUIRED            6 OUTER ITERATIONS 
       AND A TOTAL OF         11 INNER ITERATIONS.
    ------------------------------------------------

 NO OUTPUT CONTROL FOR STRESS PERIOD    6   TIME STEP    3
 
 SOLVING FOR HEAD 
                                                   Max.-Head-Change                         Max.-Flux-Residual
  Residual-Control   Outer-Iter.   Inner-Iter.     Column Row Layer    Maximum-Head-Change  Column Row Layer    Maximum-Flux-Residual          L2-NORM 
          0                 1           2             5    8     1       0.7910763460E-01       5    8    1         0.4320118494E+01      0.1041552744E+02
          0                 2           2             4    7     1      -0.3563579033E+00       5    8    1        -0.1932099170E+02      0.4722247788E+02
          0                 3           2             4    7     1       0.2310445884E+00       5    8    1         0.1276099923E+02      0.3124494588E+02
          0                 4           2             4    7     1      -0.3422655041E+00       5    6    1        -0.1941076003E+02      0.4754607847E+02
          0                 5           2             4    7     1       0.4219577426E-02       4    7    1         0.2459255773E+00      0.6025086306E+00
          0                 6           1             4    7     1       0.6205819263E-04       5    8    1         0.3623958279E-02      0.8886193711E-02

    ------------------------------------------------
       NWT REQUIRED            6 OUTER ITERATIONS 
       AND A TOTAL OF         11 INNER ITERATIONS.
    ------------------------------------------------

 NO OUTPUT CONTROL FOR STRESS PERIOD    6   TIME STEP    4
 
 SOLVING FOR HEAD 
                                                   Max.-Head-Change                         Max.-Flux-Residual
  Residual-Control   Outer-Iter.   Inner-Iter.     Column Row Layer    Maximum-Head-Change  Column Row Layer    Maximum-Flux-Residual          L2-NORM 
          0                 1           2             5    8     1       0.8962597382E-01       5    8    1         0.4899071246E+01      0.1161228358E+02
          0                 2           2             4    7     1      -0.3566563416E+00       5    8    1        -0.1937888507E+02      0.4731938390E+02
          0                 3           2             4    7     1       0.2310660633E+00       5    8    1         0.1276507573E+02      0.3125169937E+02
          0                 4           2             4    7     1      -0.3422681963E+00       5    8    1        -0.1941092600E+02      0.4754635730E+02
          0                 5           2             4    7     1       0.4219610628E-02       4    7    1         0.2459261228E+00      0.6025113812E+00
          0                 6           1             4    7     1       0.6205868079E-04       5    8    1         0.3623989387E-02      0.8886228089E-02

    ------------------------------------------------
       NWT REQUIRED            6 OUTER ITERATIONS 
       AND A TOTAL OF         11 INNER ITERATIONS.
    ------------------------------------------------

 NO OUTPUT CONTROL FOR STRESS PERIOD    6   TIME STEP    5
 
 SOLVING FOR HEAD 
                                                   Max.-Head-Change                         Max.-Flux-Residual
  Residual-Control   Outer-Iter.   Inner-Iter.     Column Row Layer    Maximum-Head-Change  Column Row Layer    Maximum-Flux-Residual          L2-NORM 
          0                 1           2             5    8     1       0.9956547839E-01       5    8    1         0.5445647744E+01      0.1276632216E+02
          0                 2           2             4    7     1      -0.3569667482E+00       5    8    1        -0.1943354068E+02      0.4741306991E+02
          0                 3           2             4    7     1       0.2310884186E+00       5    8    1         0.1276892392E+02      0.3125822256E+02
          0                 4           2             4    7     1      -0.3422710303E+00       5    8    1        -0.1941108548E+02      0.4754662649E+02
          0                 5           2             4    7     1       0.4219645572E-02       4    7    1         0.2459266939E+00      0.6025140489E+00
          0                 6           1             4    7     1       0.6205919472E-04       5    8    1         0.3624018725E-02      0.8886260659E-02

    ------------------------------------------------
       NWT REQUIRED            6 OUTER ITERATIONS 
       AND A TOTAL OF         11 INNER ITERATIONS.
    ------------------------------------------------

 NO OUTPUT CONTROL FOR STRESS PERIOD    6   TIME STEP    6
 
 SOLVING FOR HEAD 
                                                   Max.-Head-Change                         Max.-Flux-Residual
  Residual-Control   Outer-Iter.   Inner-Iter.     Column Row Layer    Maximum-Head-Change  Column Row Layer    Maximum-Flux-Residual          L2-NORM 
          0                 1           2             5    8     1       0.1089667192E+00       5    8    1         0.5962138760E+01      0.1387647000E+02
          0                 2           2             4    7     1      -0.3572878617E+00       5    8    1        -0.1948518764E+02      0.4750367248E+02
          0                 3           2             4    7     1       0.2311115630E+00       5    8    1         0.1277255995E+02      0.3126452629E+02
          0                 4           2             4    7     1      -0.3422739938E+00       5    8    1        -0.1941123613E+02      0.4754688650E+02
          0                 5           2             4    7     1       0.4219682108E-02       4    7    1         0.2459272880E+00      0.6025166566E+00
          0                 6           1             4    7     1       0.6205973217E-04       5    8    1         0.3624046388E-02      0.8886295314E-02

    ------------------------------------------------
       NWT REQUIRED            6 OUTER ITERATIONS 
       AND A TOTAL OF         11 INNER ITERATIONS.
    ------------------------------------------------

 NO OUTPUT CONTROL FOR STRESS PERIOD    6   TIME STEP    7
 
 SOLVING FOR HEAD 
                                                   Max.-Head-Change                         Max.-Flux-Residual
  Residual-Control   Outer-Iter.   Inner-Iter.     Column Row Layer    Maximum-Head-Change  Column Row Layer    Maximum-Flux-Residual          L2-NORM 
          0                 1           2             5    8     1       0.1178671099E+00       5    8    1         0.6450655755E+01      0.1494306582E+02
          0                 2           2             4    7     1      -0.3576184985E+00       5    8    1        -0.1953403712E+02      0.4759132201E+02
          0                 3           2             4    7     1       0.2311354110E+00       5    8    1         0.1277599872E+02      0.3127061396E+02
          0                 4           2             4    7     1      -0.3422770752E+00       5    8    1        -0.1941137858E+02      0.4754713735E+02
          0                 5           2             4    7     1       0.4219720094E-02       4    7    1         0.2459279029E+00      0.6025192387E+00
          0                 6           1             4    7     1       0.6206029057E-04       5    8    1         0.3624072499E-02      0.8886335171E-02

    ------------------------------------------------
       NWT REQUIRED            6 OUTER ITERATIONS 
       AND A TOTAL OF         11 INNER ITERATIONS.
    ------------------------------------------------

 NO OUTPUT CONTROL FOR STRESS PERIOD    6   TIME STEP    8
 
 SOLVING FOR HEAD 
                                                   Max.-Head-Change                         Max.-Flux-Residual
  Residual-Control   Outer-Iter.   Inner-Iter.     Column Row Layer    Maximum-Head-Change  Column Row Layer    Maximum-Flux-Residual          L2-NORM 
          0                 1           2             5    8     1       0.1263010542E+00       5    8    1         0.6913138643E+01      0.1596724054E+02
          0                 2           2             4    7     1      -0.3579575381E+00       5    8    1        -0.1958028314E+02      0.4767614410E+02
          0                 3           2             4    7     1       0.2311598813E+00       5    8    1         0.1277925393E+02      0.3127649789E+02
          0                 4           2             4    7     1      -0.3422802635E+00       5    8    1        -0.1941151340E+02      0.4754737965E+02
          0                 5           2             4    7     1       0.4219759395E-02       4    7    1         0.2459285361E+00      0.6025217183E+00
          0                 6           1             4    7     1       0.6206086846E-04       5    8    1         0.3624097156E-02      0.8886365827E-02

    ------------------------------------------------
       NWT REQUIRED            6 OUTER ITERATIONS 
       AND A TOTAL OF         11 INNER ITERATIONS.
    ------------------------------------------------

 NO OUTPUT CONTROL FOR STRESS PERIOD    6   TIME STEP    9
 
 SOLVING FOR HEAD 
                                                   Max.-Head-Change                         Max.-Flux-Residual
  Residual-Control   Outer-Iter.   Inner-Iter.     Column Row Layer    Maximum-Head-Change  Column Row Layer    Maximum-Flux-Residual          L2-NORM 
          0                 1           2             5    8     1       0.1343004699E+00       5    8    1         0.7351386941E+01      0.1695056440E+02
          0                 2           2             4    7     1      -0.3583039458E+00       5    8    1        -0.1962410567E+02      0.4775826098E+02
          0                 3           2             4    7     1       0.2311848992E+00       5    8    1         0.1278233099E+02      0.3128218275E+02
          0                 4           2             4    7     1      -0.3422835486E+00       5    8    1        -0.1941164059E+02      0.4754761348E+02
          0                 5           2             4    7     1       0.4219799883E-02       4    7    1         0.2459291856E+00      0.6025242195E+00
          0                 6           1             4    7     1       0.6206146428E-04       5    8    1         0.3624122829E-02      0.8886409576E-02

    ------------------------------------------------
       NWT REQUIRED            6 OUTER ITERATIONS 
       AND A TOTAL OF         11 INNER ITERATIONS.
    ------------------------------------------------

 NO OUTPUT CONTROL FOR STRESS PERIOD    6   TIME STEP   10
 
 SOLVING FOR HEAD 
                                                   Max.-Head-Change                         Max.-Flux-Residual
  Residual-Control   Outer-Iter.   Inner-Iter.     Column Row Layer    Maximum-Head-Change  Column Row Layer    Maximum-Flux-Residual          L2-NORM 
          0                 1           2             5    8     1       0.1418947532E+00       5    8    1         0.7767055598E+01      0.1789474888E+02
          0                 2           2             4    7     1      -0.3586567428E+00       5    8    1        -0.1966567022E+02      0.4783778270E+02
          0                 3           2             4    7     1       0.2312103937E+00       5    8    1         0.1278524429E+02      0.3128768330E+02
          0                 4           2             4    7     1      -0.3422869207E+00       5    8    1        -0.1941176083E+02      0.4754783962E+02
          0                 5           2             4    7     1       0.4219841442E-02       4    7    1         0.2459298493E+00      0.6025266247E+00
          0                 6           1             4    7     1       0.6206207544E-04       5    8    1         0.3624147955E-02      0.8886445031E-02

    ------------------------------------------------
       NWT REQUIRED            6 OUTER ITERATIONS 
       AND A TOTAL OF         11 INNER ITERATIONS.
    ------------------------------------------------

 NO OUTPUT CONTROL FOR STRESS PERIOD    6   TIME STEP   11
 
 SOLVING FOR HEAD 
                                                   Max.-Head-Change                         Max.-Flux-Residual
  Residual-Control   Outer-Iter.   Inner-Iter.     Column Row Layer    Maximum-Head-Change  Column Row Layer    Maximum-Flux-Residual          L2-NORM 
          0                 1           2             5    8     1       0.1491106849E+00       5    8    1         0.8161653204E+01      0.1880163133E+02
          0                 2           2             4    7     1      -0.3590150042E+00       5    8    1        -0.1970512766E+02      0.4791482040E+02
          0                 3           2             4    7     1       0.2312362978E+00       5    8    1         0.1278800634E+02      0.3129300955E+02
          0                 4           2             4    7     1      -0.3422903706E+00       5    8    1        -0.1941187474E+02      0.4754805854E+02
          0                 5           2             4    7     1       0.4219883956E-02       4    7    1         0.2459305255E+00      0.6025289390E+00
          0                 6           1             4    7     1       0.6206270104E-04       5    8    1         0.3624169351E-02      0.8886474359E-02

    ------------------------------------------------
       NWT REQUIRED            6 OUTER ITERATIONS 
       AND A TOTAL OF         11 INNER ITERATIONS.
    ------------------------------------------------

 NO OUTPUT CONTROL FOR STRESS PERIOD    6   TIME STEP   12
 
 SOLVING FOR HEAD 
                                                   Max.-Head-Change                         Max.-Flux-Residual
  Residual-Control   Outer-Iter.   Inner-Iter.     Column Row Layer    Maximum-Head-Change  Column Row Layer    Maximum-Flux-Residual          L2-NORM 
          0                 1           2             5    8     1       0.1559735096E+00       5    8    1         0.8536599654E+01      0.1967303345E+02
          0                 2           2             5    7     1      -0.3594723346E+00       5    8    1        -0.1974262000E+02      0.4798947932E+02
          0                 3           2             4    7     1       0.2312625501E+00       5    8    1         0.1279063084E+02      0.3129817085E+02
          0                 4           2             4    7     1      -0.3422938898E+00       5    8    1        -0.1941198296E+02      0.4754827064E+02
          0                 5           2             4    7     1       0.4219927324E-02       4    7    1         0.2459312123E+00      0.6025311869E+00
          0                 6           1             4    7     1       0.6206333819E-04       5    8    1         0.3624189610E-02      0.8886502652E-02

    ------------------------------------------------
       NWT REQUIRED            6 OUTER ITERATIONS 
       AND A TOTAL OF         11 INNER ITERATIONS.
    ------------------------------------------------

 NO OUTPUT CONTROL FOR STRESS PERIOD    6   TIME STEP   13
 
 SOLVING FOR HEAD 
                                                   Max.-Head-Change                         Max.-Flux-Residual
  Residual-Control   Outer-Iter.   Inner-Iter.     Column Row Layer    Maximum-Head-Change  Column Row Layer    Maximum-Flux-Residual          L2-NORM 
          0                 1           2             5    8     1       0.1625060940E+00       5    8    1         0.8893180473E+01      0.2051072267E+02
          0                 2           2             5    7     1      -0.3599849619E+00       5    8    1        -0.1977827578E+02      0.4806185889E+02
          0                 3           2             4    7     1       0.2312890944E+00       5    8    1         0.1279312679E+02      0.3130317467E+02
          0                 4           2             4    7     1      -0.3422974706E+00       5    8    1        -0.1941208587E+02      0.4754847622E+02
          0                 5           2             4    7     1       0.4219971446E-02       4    7    1         0.2459319081E+00      0.6025333710E+00
          0                 6           1             4    7     1       0.6206398777E-04       5    8    1         0.3624208797E-02      0.8886529695E-02

    ------------------------------------------------
       NWT REQUIRED            6 OUTER ITERATIONS 
       AND A TOTAL OF         11 INNER ITERATIONS.
    ------------------------------------------------

 NO OUTPUT CONTROL FOR STRESS PERIOD    6   TIME STEP   14
 
 SOLVING FOR HEAD 
                                                   Max.-Head-Change                         Max.-Flux-Residual
  Residual-Control   Outer-Iter.   Inner-Iter.     Column Row Layer    Maximum-Head-Change  Column Row Layer    Maximum-Flux-Residual          L2-NORM 
          0                 1           2             5    8     1       0.1687302296E+00       5    8    1         0.9232620361E+01      0.2131644148E+02
          0                 2           2             5    7     1      -0.3604867763E+00       5    8    1        -0.1981221750E+02      0.4813205460E+02
          0                 3           2             4    7     1       0.2313158758E+00       5    8    1         0.1279550277E+02      0.3130802730E+02
          0                 4           2             4    7     1      -0.3423011053E+00       5    8    1        -0.1941218381E+02      0.4754867557E+02
          0                 5           2             4    7     1       0.4220016232E-02       4    7    1         0.2459326114E+00      0.6025354942E+00
          0                 6           1             4    7     1       0.6206464598E-04       5    8    1         0.3624226988E-02      0.8886555713E-02

    ------------------------------------------------
       NWT REQUIRED            6 OUTER ITERATIONS 
       AND A TOTAL OF         11 INNER ITERATIONS.
    ------------------------------------------------

 NO OUTPUT CONTROL FOR STRESS PERIOD    6   TIME STEP   15
 
 SOLVING FOR HEAD 
                                                   Max.-Head-Change                         Max.-Flux-Residual
  Residual-Control   Outer-Iter.   Inner-Iter.     Column Row Layer    Maximum-Head-Change  Column Row Layer    Maximum-Flux-Residual          L2-NORM 
          0                 1           2             5    8     1       0.1746653520E+00       5    8    1         0.9556010237E+01      0.2209180941E+02
          0                 2           2             5    7     1      -0.3609806426E+00       5    8    1        -0.1984443103E+02      0.4820015516E+02
          0                 3           2             4    7     1       0.2313428802E+00       5    8    1         0.1279775779E+02      0.3131273536E+02
          0                 4           2             4    7     1      -0.3423048388E+00       5    8    1        -0.1941227678E+02      0.4754886896E+02
          0                 5           2             4    7     1       0.4220062276E-02       4    7    1         0.2459333229E+00      0.6025375575E+00
          0                 6           1             4    7     1       0.6206532334E-04       5    8    1         0.3624243418E-02      0.8886583993E-02

    ------------------------------------------------
       NWT REQUIRED            6 OUTER ITERATIONS 
       AND A TOTAL OF         11 INNER ITERATIONS.
    ------------------------------------------------

 NO OUTPUT CONTROL FOR STRESS PERIOD    6   TIME STEP   16
 
 SOLVING FOR HEAD 
                                                   Max.-Head-Change                         Max.-Flux-Residual
  Residual-Control   Outer-Iter.   Inner-Iter.     Column Row Layer    Maximum-Head-Change  Column Row Layer    Maximum-Flux-Residual          L2-NORM 
          0                 1           2             5    8     1       0.1803632829E+00       5    8    1         0.9864601970E+01      0.2283845435E+02
          0                 2           2             5    7     1      -0.3614584723E+00       5    8    1        -0.1987541538E+02      0.4826625005E+02
          0                 3           2             4    7     1       0.2313699885E+00       5    8    1         0.1279992676E+02      0.3131730505E+02
          0                 4           2             4    7     1      -0.3423085603E+00       5    8    1        -0.1941236616E+02      0.4754905663E+02
          0                 5           2             4    7     1       0.4220108127E-02       4    7    1         0.2459340370E+00      0.6025395660E+00
          0                 6           1             4    7     1       0.6206599723E-04       5    8    1         0.3624259891E-02      0.8886606106E-02

    ------------------------------------------------
       NWT REQUIRED            6 OUTER ITERATIONS 
       AND A TOTAL OF         11 INNER ITERATIONS.
    ------------------------------------------------

 NO OUTPUT CONTROL FOR STRESS PERIOD    6   TIME STEP   17
 
 SOLVING FOR HEAD 
                                                   Max.-Head-Change                         Max.-Flux-Residual
  Residual-Control   Outer-Iter.   Inner-Iter.     Column Row Layer    Maximum-Head-Change  Column Row Layer    Maximum-Flux-Residual          L2-NORM 
          0                 1           2             5    8     1       0.1858060434E+00       5    8    1         0.1016068123E+02      0.2355797465E+02
          0                 2           2             5    7     1      -0.3619253299E+00       5    8    1        -0.1990502128E+02      0.4833041754E+02
          0                 3           2             4    7     1       0.2313971925E+00       5    8    1         0.1280199924E+02      0.3132174288E+02
          0                 4           2             4    7     1      -0.3423123159E+00       5    8    1        -0.1941245155E+02      0.4754923883E+02
          0                 5           2             4    7     1       0.4220154397E-02       4    7    1         0.2459347547E+00      0.6025415206E+00
          0                 6           1             4    7     1       0.6206667817E-04       5    8    1         0.3624275542E-02      0.8886627764E-02

    ------------------------------------------------
       NWT REQUIRED            6 OUTER ITERATIONS 
       AND A TOTAL OF         11 INNER ITERATIONS.
    ------------------------------------------------

 NO OUTPUT CONTROL FOR STRESS PERIOD    6   TIME STEP   18
 
 SOLVING FOR HEAD 
                                                   Max.-Head-Change                         Max.-Flux-Residual
  Residual-Control   Outer-Iter.   Inner-Iter.     Column Row Layer    Maximum-Head-Change  Column Row Layer    Maximum-Flux-Residual          L2-NORM 
          0                 1           2             5    8     1       0.1910087880E+00       5    8    1         0.1044346308E+02      0.2425157675E+02
          0                 2           2             5    7     1      -0.3623828208E+00       5    8    1        -0.1993329745E+02      0.4839272689E+02
          0                 3           2             4    7     1       0.2314319589E+00       5    8    1         0.1280397863E+02      0.3132605253E+02
          0                 4           2             4    7     1      -0.3423226644E+00       5    8    1        -0.1941253316E+02      0.4754941581E+02
          0                 5           2             4    7     1       0.4220281977E-02       4    7    1         0.2459355964E+00      0.6025434519E+00
          0                 6           1             4    7     1       0.6206855444E-04       5    8    1         0.3624288570E-02      0.8886648825E-02

    ------------------------------------------------
       NWT REQUIRED            6 OUTER ITERATIONS 
       AND A TOTAL OF         11 INNER ITERATIONS.
    ------------------------------------------------

 NO OUTPUT CONTROL FOR STRESS PERIOD    6   TIME STEP   19
 
 SOLVING FOR HEAD 
                                                   Max.-Head-Change                         Max.-Flux-Residual
  Residual-Control   Outer-Iter.   Inner-Iter.     Column Row Layer    Maximum-Head-Change  Column Row Layer    Maximum-Flux-Residual          L2-NORM 
          0                 1           2             5    8     1       0.1959898443E+00       5    8    1         0.1071382933E+02      0.2492080214E+02
          0                 2           2             5    7     1      -0.3628285487E+00       5    8    1        -0.1996033206E+02      0.4845328685E+02
          0                 3           2             4    7     1       0.2314552021E+00       5    8    1         0.1280587117E+02      0.3133024030E+02
          0                 4           2             4    7     1      -0.3423263067E+00       5    8    1        -0.1941261115E+02      0.4754958774E+02
          0                 5           2             4    7     1       0.4220326854E-02       4    7    1         0.2459361965E+00      0.6025453250E+00
          0                 6           1             4    7     1       0.6206921444E-04       5    8    1         0.3624301556E-02      0.8886669375E-02

    ------------------------------------------------
       NWT REQUIRED            6 OUTER ITERATIONS 
       AND A TOTAL OF         11 INNER ITERATIONS.
    ------------------------------------------------

 NO OUTPUT CONTROL FOR STRESS PERIOD    6   TIME STEP   20
 
 SOLVING FOR HEAD 
                                                   Max.-Head-Change                         Max.-Flux-Residual
  Residual-Control   Outer-Iter.   Inner-Iter.     Column Row Layer    Maximum-Head-Change  Column Row Layer    Maximum-Flux-Residual          L2-NORM 
          0                 1           2             5    8     1       0.2007605749E+00       5    8    1         0.1097258149E+02      0.2556657824E+02
          0                 2           2             5    7     1      -0.3632651273E+00       5    8    1        -0.1998620532E+02      0.4851212047E+02
          0                 3           2             4    7     1       0.2314819487E+00       5    8    1         0.1280768237E+02      0.3133431081E+02
          0                 4           2             4    7     1      -0.3423301104E+00       5    8    1        -0.1941268570E+02      0.4754975482E+02
          0                 5           2             4    7     1       0.4220373716E-02       4    7    1         0.2459369027E+00      0.6025471313E+00
          0                 6           1             4    7     1       0.6206990356E-04       5    8    1         0.3624315056E-02      0.8886689828E-02

    ------------------------------------------------
       NWT REQUIRED            6 OUTER ITERATIONS 
       AND A TOTAL OF         11 INNER ITERATIONS.
    ------------------------------------------------

 NO OUTPUT CONTROL FOR STRESS PERIOD    6   TIME STEP   21
 
 SOLVING FOR HEAD 
                                                   Max.-Head-Change                         Max.-Flux-Residual
  Residual-Control   Outer-Iter.   Inner-Iter.     Column Row Layer    Maximum-Head-Change  Column Row Layer    Maximum-Flux-Residual          L2-NORM 
          0                 1           2             5    8     1       0.2053336274E+00       5    8    1         0.1122042285E+02      0.2619013373E+02
          0                 2           2             5    7     1      -0.3636919741E+00       5    8    1        -0.2001098752E+02      0.4856932423E+02
          0                 3           2             4    7     1       0.2315086806E+00       5    8    1         0.1280941721E+02      0.3133826900E+02
          0                 4           2             4    7     1      -0.3423339322E+00       5    8    1        -0.1941275713E+02      0.4754991728E+02
          0                 5           2             4    7     1       0.4220420798E-02       4    7    1         0.2459376091E+00      0.6025488901E+00
          0                 6           1             4    7     1       0.6207059627E-04       5    8    1         0.3624327881E-02      0.8886709293E-02

    ------------------------------------------------
       NWT REQUIRED            6 OUTER ITERATIONS 
       AND A TOTAL OF         11 INNER ITERATIONS.
    ------------------------------------------------

 NO OUTPUT CONTROL FOR STRESS PERIOD    6   TIME STEP   22
 
 SOLVING FOR HEAD 
                                                   Max.-Head-Change                         Max.-Flux-Residual
  Residual-Control   Outer-Iter.   Inner-Iter.     Column Row Layer    Maximum-Head-Change  Column Row Layer    Maximum-Flux-Residual          L2-NORM 
          0                 1           2             5    8     1       0.2097208109E+00       5    8    1         0.1145800075E+02      0.2679261210E+02
          0                 2           2             5    7     1      -0.3641092708E+00       5    8    1        -0.2003474340E+02      0.4862495600E+02
          0                 3           2             4    7     1       0.2315353682E+00       5    8    1         0.1281108021E+02      0.3134211925E+02
          0                 4           2             4    7     1      -0.3423377675E+00       5    8    1        -0.1941282559E+02      0.4755007528E+02
          0                 5           2             4    7     1       0.4220468046E-02       4    7    1         0.2459383150E+00      0.6025506031E+00
          0                 6           1             4    7     1       0.6207129121E-04       5    8    1         0.3624340085E-02      0.8886728020E-02

    ------------------------------------------------
       NWT REQUIRED            6 OUTER ITERATIONS 
       AND A TOTAL OF         11 INNER ITERATIONS.
    ------------------------------------------------

 NO OUTPUT CONTROL FOR STRESS PERIOD    6   TIME STEP   23
 
 SOLVING FOR HEAD 
                                                   Max.-Head-Change                         Max.-Flux-Residual
  Residual-Control   Outer-Iter.   Inner-Iter.     Column Row Layer    Maximum-Head-Change  Column Row Layer    Maximum-Flux-Residual          L2-NORM 
          0                 1           2             5    8     1       0.2139328902E+00       5    8    1         0.1168591602E+02      0.2737504936E+02
          0                 2           2             5    7     1      -0.3645172449E+00       5    8    1        -0.2005753305E+02      0.4867908004E+02
          0                 3           2             4    7     1       0.2315619860E+00       5    8    1         0.1281267558E+02      0.3134586587E+02
          0                 4           2             4    7     1      -0.3423416121E+00       5    8    1        -0.1941289126E+02      0.4755022904E+02
          0                 5           2             4    7     1       0.4220515407E-02       4    7    1         0.2459390195E+00      0.6025522999E+00
          0                 6           1             4    7     1       0.6207198739E-04       5    8    1         0.3624351691E-02      0.8886745353E-02

    ------------------------------------------------
       NWT REQUIRED            6 OUTER ITERATIONS 
       AND A TOTAL OF         11 INNER ITERATIONS.
    ------------------------------------------------

 NO OUTPUT CONTROL FOR STRESS PERIOD    6   TIME STEP   24
 
 SOLVING FOR HEAD 
                                                   Max.-Head-Change                         Max.-Flux-Residual
  Residual-Control   Outer-Iter.   Inner-Iter.     Column Row Layer    Maximum-Head-Change  Column Row Layer    Maximum-Flux-Residual          L2-NORM 
          0                 1           2             5    8     1       0.2179800349E+00       5    8    1         0.1190473473E+02      0.2793838498E+02
          0                 2           2             5    7     1      -0.3649161117E+00       5    8    1        -0.2007941307E+02      0.4873174687E+02
          0                 3           2             4    7     1       0.2315885096E+00       5    8    1         0.1281420727E+02      0.3134951279E+02
          0                 4           2             4    7     1      -0.3423454629E+00       5    8    1        -0.1941295429E+02      0.4755037867E+02
          0                 5           2             4    7     1       0.4220562844E-02       4    7    1         0.2459397220E+00      0.6025539297E+00
          0                 6           1             4    7     1       0.6207268503E-04       5    8    1         0.3624362787E-02      0.8886762501E-02

    ------------------------------------------------
       NWT REQUIRED            6 OUTER ITERATIONS 
       AND A TOTAL OF         11 INNER ITERATIONS.
    ------------------------------------------------

 NO OUTPUT CONTROL FOR STRESS PERIOD    6   TIME STEP   25
 
 SOLVING FOR HEAD 
                                                   Max.-Head-Change                         Max.-Flux-Residual
  Residual-Control   Outer-Iter.   Inner-Iter.     Column Row Layer    Maximum-Head-Change  Column Row Layer    Maximum-Flux-Residual          L2-NORM 
          0                 1           2             5    8     1       0.2218715529E+00       5    8    1         0.1211497622E+02      0.2848323865E+02
          0                 2           2             5    7     1      -0.3653060454E+00       5    8    1        -0.2010043541E+02      0.4878301905E+02
          0                 3           2             4    7     1       0.2316149177E+00       5    8    1         0.1281567893E+02      0.3135306402E+02
          0                 4           2             4    7     1      -0.3423493164E+00       5    8    1        -0.1941301485E+02      0.4755052436E+02
          0                 5           2             4    7     1       0.4220610313E-02       4    7    1         0.2459404218E+00      0.6025555196E+00
          0                 6           1             4    7     1       0.6207338334E-04       5    8    1         0.3624373389E-02      0.8886779053E-02

    ------------------------------------------------
       NWT REQUIRED            6 OUTER ITERATIONS 
       AND A TOTAL OF         11 INNER ITERATIONS.
    ------------------------------------------------

 NO OUTPUT CONTROL FOR STRESS PERIOD    6   TIME STEP   26
 
 SOLVING FOR HEAD 
                                                   Max.-Head-Change                         Max.-Flux-Residual
  Residual-Control   Outer-Iter.   Inner-Iter.     Column Row Layer    Maximum-Head-Change  Column Row Layer    Maximum-Flux-Residual          L2-NORM 
          0                 1           2             5    8     1       0.2256163874E+00       5    8    1         0.1231713880E+02      0.2901085782E+02
          0                 2           2             5    7     1      -0.3656873093E+00       5    8    1        -0.2012064988E+02      0.4883295013E+02
          0                 3           2             4    7     1       0.2316411886E+00       5    8    1         0.1281709404E+02      0.3135652322E+02
          0                 4           2             4    7     1      -0.3423531690E+00       5    8    1        -0.1941307307E+02      0.4755066626E+02
          0                 5           2             4    7     1       0.4220657772E-02       4    7    1         0.2459411185E+00      0.6025570709E+00
          0                 6           1             4    7     1       0.6207408176E-04       5    8    1         0.3624383510E-02      0.8886794923E-02

    ------------------------------------------------
       NWT REQUIRED            6 OUTER ITERATIONS 
       AND A TOTAL OF         11 INNER ITERATIONS.
    ------------------------------------------------

 NO OUTPUT CONTROL FOR STRESS PERIOD    6   TIME STEP   27
 
 SOLVING FOR HEAD 
                                                   Max.-Head-Change                         Max.-Flux-Residual
  Residual-Control   Outer-Iter.   Inner-Iter.     Column Row Layer    Maximum-Head-Change  Column Row Layer    Maximum-Flux-Residual          L2-NORM 
          0                 1           2             5    8     1       0.2292224381E+00       5    8    1         0.1251166297E+02      0.2952203031E+02
          0                 2           2             5    7     1      -0.3660600765E+00       5    8    1        -0.2014010055E+02      0.4888158842E+02
          0                 3           2             4    7     1       0.2316673052E+00       5    8    1         0.1281845568E+02      0.3135989375E+02
          0                 4           2             4    7     1      -0.3423570182E+00       5    8    1        -0.1941312908E+02      0.4755080451E+02
          0                 5           2             4    7     1       0.4220705187E-02       4    7    1         0.2459418113E+00      0.6025585849E+00
          0                 6           1             4    7     1       0.6207477894E-04       5    8    1         0.3624393181E-02      0.8886810283E-02

    ------------------------------------------------
       NWT REQUIRED            6 OUTER ITERATIONS 
       AND A TOTAL OF         11 INNER ITERATIONS.
    ------------------------------------------------

 NO OUTPUT CONTROL FOR STRESS PERIOD    6   TIME STEP   28
 
 SOLVING FOR HEAD 
                                                   Max.-Head-Change                         Max.-Flux-Residual
  Residual-Control   Outer-Iter.   Inner-Iter.     Column Row Layer    Maximum-Head-Change  Column Row Layer    Maximum-Flux-Residual          L2-NORM 
          0                 1           2             5    8     1       0.2326973468E+00       5    8    1         0.1269897389E+02      0.3001753107E+02
          0                 2           2             5    7     1      -0.3664245654E+00       5    8    1        -0.2015882993E+02      0.4892898361E+02
          0                 3           2             4    7     1       0.2316932511E+00       5    8    1         0.1281976683E+02      0.3136317898E+02
          0                 4           2             4    7     1      -0.3423608611E+00       5    8    1        -0.1941318300E+02      0.4755093925E+02
          0                 5           2             4    7     1       0.4220752525E-02       4    7    1         0.2459425000E+00      0.6025600631E+00
          0                 6           1             4    7     1       0.6207547479E-04       5    8    1         0.3624402393E-02      0.8886824674E-02

    ------------------------------------------------
       NWT REQUIRED            6 OUTER ITERATIONS 
       AND A TOTAL OF         11 INNER ITERATIONS.
    ------------------------------------------------

 NO OUTPUT CONTROL FOR STRESS PERIOD    6   TIME STEP   29
 
 SOLVING FOR HEAD 
                                                   Max.-Head-Change                         Max.-Flux-Residual
  Residual-Control   Outer-Iter.   Inner-Iter.     Column Row Layer    Maximum-Head-Change  Column Row Layer    Maximum-Flux-Residual          L2-NORM 
          0                 1           2             5    8     1       0.2360469341E+00       5    8    1         0.1287948327E+02      0.3048418512E+02
          0                 2           2             5    7     1      -0.3667808653E+00       5    8    1        -0.2017687911E+02      0.4896219381E+02
          0                 3           2             4    7     1       0.2170040980E+00       5    8    1         0.1200933480E+02      0.2937811478E+02
          0                 4           2             4    7     1      -0.3180769447E+00       5    8    1        -0.1803614867E+02      0.4417789905E+02
          0                 5           2             4    7     1       0.3921417831E-02       4    7    1         0.2284984389E+00      0.5598225860E+00
          0                 6           1             4    7     1       0.5767310569E-04       5    8    1         0.3367340172E-02      0.8256495650E-02

    ------------------------------------------------
       NWT REQUIRED            6 OUTER ITERATIONS 
       AND A TOTAL OF         11 INNER ITERATIONS.
    ------------------------------------------------

 NO OUTPUT CONTROL FOR STRESS PERIOD    6   TIME STEP   30



 STREAM LISTING     PERIOD      6   STEP       30

 LAYER ROW COL. STREAM  RCH.  FLOW INTO     FLOW TO   FLOW OUT OF   OVRLND.     DIRECT     STREAM       STREAM     STREAM     STREAM   STREAMBED  STREAMBED
                SEG.NO.  NO.  STRM. RCH.    AQUIFER    STRM. RCH.    RUNOFF     PRECIP       ET          HEAD       DEPTH      WIDTH   CONDCTNC.   GRADIENT

   1    1    1     1     1    6.9266E+01  4.0352E-01   6.8863E+01  0.000E+00  0.000E+00  0.000E+00  1.09468E+03  1.634E+00  1.935E+01  8.707E-02  1.545E+00
   1    2    2     1     2    6.8863E+01  6.2503E-01   6.8238E+01  0.000E+00  0.000E+00  0.000E+00  1.08969E+03  1.628E+00  1.929E+01  1.350E-01  1.543E+00
   1    3    3     1     3    6.8238E+01  5.3316E-01   6.7704E+01  0.000E+00  0.000E+00  0.000E+00  1.08404E+03  1.622E+00  1.923E+01  1.154E-01  1.541E+00
   1    3    4     1     4    6.7704E+01  4.9106E-01   6.7213E+01  0.000E+00  0.000E+00  0.000E+00  1.07902E+03  1.616E+00  1.917E+01  1.064E-01  1.539E+00
   1    4    5     2     1    6.5213E+01  4.0112E-01   6.4812E+01  0.000E+00  0.000E+00  0.000E+00  1.07408E+03  2.143E+00  1.200E+01  7.800E-02  1.714E+00
   1    5    6     2     2    6.4812E+01  3.0814E-01   6.4504E+01  0.000E+00  0.000E+00  0.000E+00  1.06865E+03  2.136E+00  1.200E+01  6.000E-02  1.712E+00
   1    6    6     2     3    6.4504E+01  3.0777E-01   6.4196E+01  0.000E+00  0.000E+00  0.000E+00  1.06392E+03  2.129E+00  1.200E+01  6.000E-02  1.710E+00
   1    7    6     2     4    6.4196E+01  3.0740E-01   6.3889E+01  0.000E+00  0.000E+00  0.000E+00  1.05920E+03  2.123E+00  1.200E+01  6.000E-02  1.708E+00
   1    8    6     2     5    6.3889E+01  3.0704E-01   6.3582E+01  0.000E+00  0.000E+00  0.000E+00  1.05448E+03  2.117E+00  1.200E+01  6.000E-02  1.706E+00
   1    3    5     3     1    2.0000E+00  2.8252E-01   1.7175E+00  0.000E+00  0.000E+00  0.000E+00  1.07555E+03  1.909E+00  9.636E+00  7.227E-02  1.955E+00
   1    3    6     3     2    1.7175E+00  2.4905E-01   1.4684E+00  0.000E+00  0.000E+00  0.000E+00  1.07264E+03  1.727E+00  8.909E+00  6.682E-02  1.864E+00
   1    3    7     3     3    1.4684E+00  1.9718E-01   1.2712E+00  0.000E+00  0.000E+00  0.000E+00  1.06987E+03  1.555E+00  8.218E+00  5.547E-02  1.777E+00
   1    4    8     3     4    1.2712E+00  2.2567E-01   1.0456E+00  0.000E+00  0.000E+00  0.000E+00  1.06682E+03  1.364E+00  7.455E+00  6.709E-02  1.682E+00
   1    5    8     3     5    1.0456E+00  1.5790E-01   8.8768E-01  0.000E+00  0.000E+00  0.000E+00  1.06362E+03  1.164E+00  6.655E+00  4.991E-02  1.582E+00
   1    6    8     3     6    8.8768E-01  5.5980E-02   8.3170E-01  0.000E+00  0.000E+00  0.000E+00  1.06158E+03  1.036E+00  6.145E+00  1.844E-02  1.518E+00
   1    5   10     4     1    1.0000E+01  9.0919E-02   9.9091E+00  0.000E+00  0.000E+00  0.000E+00  1.07836E+03  6.368E-01  1.000E+01  2.500E-02  1.212E+00
   1    5    9     4     2    9.9091E+00  1.8158E-01   9.7275E+00  0.000E+00  0.000E+00  0.000E+00  1.07154E+03  6.315E-01  1.000E+01  5.000E-02  1.211E+00
   1    6    8     4     3    9.7275E+00  1.2689E-01   9.6006E+00  0.000E+00  0.000E+00  0.000E+00  1.06381E+03  6.256E-01  1.000E+01  3.500E-02  1.209E+00
   1    6    8     5     1    1.0432E+01  2.2686E-01   1.0205E+01  0.000E+00  0.000E+00  0.000E+00  1.05868E+03  6.790E-01  1.542E+01  6.166E-02  1.226E+00
   1    7    7     5     2    1.0205E+01  2.7894E-01   9.9265E+00  0.000E+00  0.000E+00  0.000E+00  1.05417E+03  6.732E-01  1.519E+01  7.594E-02  1.224E+00
   1    8    7     5     3    9.9265E+00  1.9221E-01   9.7343E+00  0.000E+00  0.000E+00  0.000E+00  1.04992E+03  6.676E-01  1.497E+01  5.241E-02  1.223E+00
   1    8    6     5     4    9.7343E+00  1.3577E-01   9.5985E+00  0.000E+00  0.000E+00  0.000E+00  1.04691E+03  6.637E-01  1.482E+01  3.706E-02  1.221E+00
   1    9    6     6     1    9.5985E+00  2.2097E-01   9.3776E+00  0.000E+00  0.000E+00  0.000E+00  1.04341E+03  6.828E-01  1.200E+01  6.000E-02  1.228E+00
   1   10    7     6     2    9.3776E+00  2.2039E-01   9.1572E+00  0.000E+00  0.000E+00  0.000E+00  1.03885E+03  6.732E-01  1.200E+01  6.000E-02  1.224E+00
   1   11    7     6     3    9.1572E+00  2.1981E-01   8.9374E+00  0.000E+00  0.000E+00  0.000E+00  1.03430E+03  6.636E-01  1.200E+01  6.000E-02  1.221E+00
   1   12    7     6     4    8.9374E+00  2.1923E-01   8.7181E+00  0.000E+00  0.000E+00  0.000E+00  1.02974E+03  6.539E-01  1.200E+01  6.000E-02  1.218E+00
   1   13    7     6     5    8.7181E+00 -1.2332E-01   8.8415E+00  0.000E+00  0.000E+00  0.000E+00  1.02656E+03  6.517E-01  1.200E+01  2.400E-01 -1.713E-01
   1   14    9     7     1    1.5000E+02  1.3360E+00   1.4866E+02  0.000E+00  0.000E+00  0.000E+00  1.03987E+03  2.288E+00  5.529E+01  5.593E-01  7.962E-01
   1   13    8     7     2    1.4866E+02  1.8289E+00   1.4684E+02  0.000E+00  0.000E+00  0.000E+00  1.03478E+03  2.279E+00  5.526E+01  6.148E-01  9.916E-01
   1   13    7     7     3    1.4684E+02  1.4605E+00   1.4537E+02  0.000E+00  0.000E+00  0.000E+00  1.02969E+03  2.271E+00  5.522E+01  5.585E-01  8.717E-01
   1   13    6     8     1    1.5422E+02  8.1190E-01   1.5340E+02  0.000E+00  0.000E+00  0.000E+00  1.02472E+03  2.843E+00  4.123E+01  4.201E-01  6.441E-01
   1   13    5     8     2    1.5340E+02  8.6440E-02   1.5332E+02  0.000E+00  0.000E+00  0.000E+00  1.01847E+03  2.840E+00  4.118E+01  4.197E-01  6.865E-02
   1   13    4     8     3    1.5332E+02 -2.7214E+00   1.5604E+02  0.000E+00  0.000E+00  0.000E+00  1.01222E+03  2.849E+00  4.132E+01  4.210E+00 -2.154E-01
   1   13    3     8     4    1.5604E+02 -3.7883E+00   1.5983E+02  0.000E+00  0.000E+00  0.000E+00  1.00600E+03  2.872E+00  4.164E+01  4.243E+00 -2.976E-01
   1   13    2     8     5    1.5983E+02 -2.6347E+00   1.6246E+02  0.000E+00  0.000E+00  0.000E+00  9.99769E+02  2.894E+00  4.196E+01  4.276E+00 -2.054E-01
   1   13    1     8     6    1.6246E+02 -2.0229E+00   1.6449E+02  0.000E+00  0.000E+00  0.000E+00  9.94784E+02  2.909E+00  4.218E+01  2.579E+00 -2.614E-01
   1    8    6     9     1    6.3582E+01  0.0000E+00   6.3582E+01  0.000E+00  0.000E+00  0.000E+00  1.08562E+03  6.875E+00  4.000E+00  0.000E+00  3.292E+00
   1    8    5     9     2    6.3582E+01  0.0000E+00   6.3582E+01  0.000E+00  0.000E+00  0.000E+00  1.08512E+03  6.875E+00  4.000E+00  0.000E+00  3.292E+00





UNSATURATED ZONE PACKAGE VOLUMETRIC BUDGET FOR  TIME STEP    30 STRESS PERIOD    6
  ------------------------------------------------------------------------------



     CUMULATIVE VOLUMES      L**3       RATES FOR THIS TIME STEP      L**3/T
     ------------------                 ------------------------

           IN:                                      IN:
           ---                                      ---
        INFILTRATION =   771968890.0585          INFILTRATION =         219.4532

          OUT:                                     OUT:
          ----                                     ----
              UZF ET =    40490513.3744                UZF ET =           8.3175
        UZF RECHARGE =       73224.0000          UZF RECHARGE =       0.0000E+00

            IN - OUT =   731405152.6841              IN - OUT =         211.1357

          STORAGE:                                 STORAGE:
          --------                                 --------
      STORAGE CHANGE =   731410816.8962        STORAGE CHANGE =         211.1357

 PERCENT DISCREPANCY IS DIFFERENCE BETWEEN IN-OUT MINUS CHANGE IN STORAGE
 DIVIDED BY THE AVERAGE OF IN AND OUT TIMES 100

 PERCENT DISCREPANCY =          -0.00     PERCENT DISCREPANCY =           0.00






1
  VOLUMETRIC BUDGET FOR AGRICULTURAL FIELDS AT  END OF TIME STEP   30, STRESS PERIOD   6
  ------------------------------------------------------------------------------

     CUMULATIVE VOLUMES      L**3       RATES FOR THIS TIME STEP      L**3/T
     ------------------                 ------------------------

           IN:                                      IN:
           ---                                      ---
           AG WELLS      =   537334336.0000             AG WELLS      =         155.0225
      DIVERSION SEGMENTS =   223412048.0000        DIVERSION SEGMENTS =          63.5819
           GW IRRIGATION =           0.0000             GW IRRIGATION =           0.0000
           SW IRRIGATION =           0.0000             SW IRRIGATION =           0.0000
        SYSTEM LOSSES GW =           0.0000          SYSTEM LOSSES GW =           0.0000
        SYSTEM LOSSES SW =           0.0000          SYSTEM LOSSES SW =           0.0000

                TOTAL IN =   760746368.0000                  TOTAL IN =         218.6044

          OUT:                                     OUT:
          ----                                     ----
           AG WELLS      =           0.0000             AG WELLS      =           0.0000
      DIVERSION SEGMENTS =           0.0000        DIVERSION SEGMENTS =           0.0000
           GW IRRIGATION =   537334336.0000             GW IRRIGATION =         155.0225
           SW IRRIGATION =   223416624.0000             SW IRRIGATION =          63.5832
        SYSTEM LOSSES GW =           0.0000          SYSTEM LOSSES GW =           0.0000
        SYSTEM LOSSES SW =           0.0000          SYSTEM LOSSES SW =           0.0000

               TOTAL OUT =   760750976.0000                 TOTAL OUT =         218.6057

                IN - OUT =       -4608.0000                  IN - OUT =      -1.2665E-03

     PERCENT DISCREPANCY =          -0.00         PERCENT DISCREPANCY =          -0.00



1
  VOLUMETRIC BUDGET FOR ENTIRE MODEL AT END OF TIME STEP   30, STRESS PERIOD   6
  ------------------------------------------------------------------------------

     CUMULATIVE VOLUMES      L**3       RATES FOR THIS TIME STEP      L**3/T
     ------------------                 ------------------------

           IN:                                      IN:
           ---                                      ---
             STORAGE     =   548363200.0000               STORAGE     =         154.8298
       CONSTANT HEAD     =           0.0000         CONSTANT HEAD     =           0.0000
     HEAD DEP BOUNDS     =     3781796.5000       HEAD DEP BOUNDS     =           0.2858
      STREAM LEAKAGE     =   158530848.0000        STREAM LEAKAGE     =          12.4898
        UZF RECHARGE     =       73223.9531          UZF RECHARGE     =           0.0000
               GW ET     =           0.0000                 GW ET     =           0.0000
     SURFACE LEAKAGE     =           0.0000       SURFACE LEAKAGE     =           0.0000
           AG WELLS      =           0.0000             AG WELLS      =           0.0000

                TOTAL IN =   710749056.0000                  TOTAL IN =         167.6053

          OUT:                                     OUT:
          ----                                     ----
             STORAGE     =    24841648.0000               STORAGE     =           1.0044
       CONSTANT HEAD     =           0.0000         CONSTANT HEAD     =           0.0000
     HEAD DEP BOUNDS     =     3840569.7500       HEAD DEP BOUNDS     =           0.2876
      STREAM LEAKAGE     =   144701088.0000        STREAM LEAKAGE     =          11.2906
        UZF RECHARGE     =           0.0000          UZF RECHARGE     =           0.0000
               GW ET     =       34549.5586                 GW ET     =           0.0000
     SURFACE LEAKAGE     =           0.0000       SURFACE LEAKAGE     =           0.0000
           AG WELLS      =   537334336.0000             AG WELLS      =         155.0225

               TOTAL OUT =   710752192.0000                 TOTAL OUT =         167.6051

                IN - OUT =       -3136.0000                  IN - OUT =       2.7466E-04

     PERCENT DISCREPANCY =          -0.00         PERCENT DISCREPANCY =           0.00






         TIME SUMMARY AT END OF TIME STEP   30 IN STRESS PERIOD    6
                    SECONDS     MINUTES      HOURS       DAYS        YEARS
                    -----------------------------------------------------------
   TIME STEP LENGTH  87667.      1461.1      24.352      1.0147     2.77799E-03
 STRESS PERIOD TIME 2.63000E+06  43833.      730.56      30.440     8.33397E-02
         TOTAL TIME 1.32364E+07 2.20607E+05  3676.8      153.20     0.41944    
1
1
                            STRESS PERIOD NO.    7, LENGTH =   2630000.    
                            -----------------------------------------------

                              NUMBER OF TIME STEPS =    30

                               MULTIPLIER FOR DELT =     1.000

                            INITIAL TIME STEP SIZE =   87666.66    

 REUSING NON-PARAMETER GHB CELLS FROM LAST STRESS PERIOD

      2 GHB CELLS

 REUSING STREAM SEGMENT DATA FROM LAST STRESS PERIOD



            AREAL INFILTRATION RATE
 READING ON UNIT   19 WITH FORMAT: (FREE)              

            1           2           3           4           5           6           7           8           9          10
 ........................................................................................................................
   1   1.0000E-10  2.0000E-10   0.000       0.000       0.000       0.000       0.000       0.000       0.000       0.000    
   2   2.0000E-10  1.0000E-10  2.0000E-10   0.000       0.000      8.0000E-10  8.0000E-10  5.0000E-10   0.000       0.000    
   3    0.000      5.0000E-10  1.0000E-10  1.0000E-10  8.0000E-10  8.0000E-10  5.0000E-10  5.0000E-10   0.000       0.000    
   4   8.0000E-10  5.0000E-10  1.0000E-10  1.0000E-10  1.0000E-10  1.0000E-10  1.0000E-10  1.0000E-10  2.0000E-10   0.000    
   5   8.0000E-10  5.0000E-10  1.0000E-10  1.0000E-10  1.0000E-10  1.0000E-10  1.0000E-10  1.0000E-10  1.0000E-10  1.0000E-10
   6   8.0000E-10  5.0000E-10  5.0000E-10  2.0000E-10  2.0000E-10  1.0000E-10  1.0000E-10  1.0000E-10  1.0000E-10  5.0000E-10
   7   8.0000E-10  5.0000E-10  5.0000E-10  2.0000E-10  2.0000E-10  1.0000E-10  1.0000E-10  2.0000E-10  2.0000E-10   0.000    
   8    0.000      5.0000E-10  5.0000E-10  2.0000E-10  2.0000E-10  1.0000E-10  1.0000E-10  2.0000E-10  5.0000E-10   0.000    
   9    0.000      5.0000E-10  5.0000E-10  2.0000E-10  2.0000E-10  1.0000E-10  1.0000E-10  2.0000E-10  5.0000E-10   0.000    
  10    0.000      5.0000E-10  5.0000E-10  2.0000E-10  2.0000E-10  1.0000E-10  1.0000E-10  2.0000E-10  5.0000E-10  8.0000E-10
  11    0.000      1.0000E-10  1.0000E-10  1.0000E-10  1.0000E-10  1.0000E-10  1.0000E-10  2.0000E-10  5.0000E-10   0.000    
  12   1.0000E-10  1.0000E-10  1.0000E-10  1.0000E-10  1.0000E-10  1.0000E-10  1.0000E-10  1.0000E-10  2.0000E-10   0.000    
  13   1.0000E-10  1.0000E-10  2.0000E-10  2.0000E-10  2.0000E-10  2.0000E-10  2.0000E-10  1.0000E-10  1.0000E-10   0.000    
  14    0.000      2.0000E-10  5.0000E-10  5.0000E-10  5.0000E-10  5.0000E-10  5.0000E-10  2.0000E-10  1.0000E-10   0.000    
  15    0.000       0.000      8.0000E-10  8.0000E-10  8.0000E-10  8.0000E-10   0.000       0.000       0.000       0.000    

                  ET RATE =  1.500000E-07

 USING ET EXTINCTION DEPTH FROM PREVIOUS STRESS PERIOD. CURRENT PERIOD IS:       7

 USING EXTINCTION WATER CONTENT FROM PREVIOUS STRESS PERIOD. CURRENT PERIOD IS:       7

 USING AIR ENTRY PRESSURE FROM PREVIOUS STRESS PERIOD. CURRENT PERIOD IS:       7

 USING ROOT PRESSURE HEAD FROM PREVIOUS STRESS PERIOD. CURRENT PERIOD IS:       7

 USING ROOT ACTIVITY FROM PREVIOUS STRESS PERIOD. CURRENT PERIOD IS:       7

 PROCESSING AG STRESS PERIOD DATA

 READING AG STRESS PERIOD DATA

 READING IRRIGATION SEGMENT

 READING IRRIGATION WELL

 READING SUPPLEMENTAL WELL

 END PROCESSING AG STRESS PERIOD DATA OPTIONS
 
 SOLVING FOR HEAD 
                                                   Max.-Head-Change                         Max.-Flux-Residual
  Residual-Control   Outer-Iter.   Inner-Iter.     Column Row Layer    Maximum-Head-Change  Column Row Layer    Maximum-Flux-Residual          L2-NORM 
          0                 1           2             5    8     1       0.2389886933E+00       5    8    1         0.1303757209E+02      0.3085159913E+02
          0                 2           2             5    8     1      -0.2324625218E-01       5    8    1        -0.1303699736E+01      0.3087368040E+01
          0                 3           2             5    8     1       0.1582991715E-02       5    8    1         0.9125956457E-01      0.2161028575E+00
          0                 4           1             5    8     1      -0.6298868409E-04       5    8    1        -0.3732518871E-02      0.8837692557E-02

    ------------------------------------------------
       NWT REQUIRED            4 OUTER ITERATIONS 
       AND A TOTAL OF          7 INNER ITERATIONS.
    ------------------------------------------------

 NO OUTPUT CONTROL FOR STRESS PERIOD    7   TIME STEP    1
 
 SOLVING FOR HEAD 
                                                   Max.-Head-Change                         Max.-Flux-Residual
  Residual-Control   Outer-Iter.   Inner-Iter.     Column Row Layer    Maximum-Head-Change  Column Row Layer    Maximum-Flux-Residual          L2-NORM 
          0                 1           2             5    8     1       0.2278543550E+00       5    8    1         0.1241894692E+02      0.2977397398E+02
          0                 2           2             5    8     1      -0.2216324484E-01       5    8    1        -0.1241841375E+01      0.2976739456E+01
          0                 3           2             5    8     1       0.1509242342E-02       5    8    1         0.8692943813E-01      0.2083323754E+00
          0                 4           1             5    8     1      -0.6005413049E-04       5    8    1        -0.3555416637E-02      0.8518306628E-02

    ------------------------------------------------
       NWT REQUIRED            4 OUTER ITERATIONS 
       AND A TOTAL OF          7 INNER ITERATIONS.
    ------------------------------------------------

 NO OUTPUT CONTROL FOR STRESS PERIOD    7   TIME STEP    2
 
 SOLVING FOR HEAD 
                                                   Max.-Head-Change                         Max.-Flux-Residual
  Residual-Control   Outer-Iter.   Inner-Iter.     Column Row Layer    Maximum-Head-Change  Column Row Layer    Maximum-Flux-Residual          L2-NORM 
          0                 1           2             5    8     1       0.2174330109E+00       5    8    1         0.1184035793E+02      0.2870937765E+02
          0                 2           2             5    8     1      -0.8915988240E-01       5    8    1        -0.4928986417E+01      0.1179149834E+02
          0                 3           2             4    7     1       0.7360562935E-01       5    8    1         0.4090028769E+01      0.9989849717E+01
          0                 4           2             4    7     1      -0.2928866072E-02       5    8    1        -0.1672550370E+00      0.4085431904E+00
          0                 5           1             4    7     1       0.3611414125E-04       5    8    1         0.2117680283E-02      0.5176683603E-02

    ------------------------------------------------
       NWT REQUIRED            5 OUTER ITERATIONS 
       AND A TOTAL OF          9 INNER ITERATIONS.
    ------------------------------------------------

 NO OUTPUT CONTROL FOR STRESS PERIOD    7   TIME STEP    3
 
 SOLVING FOR HEAD 
                                                   Max.-Head-Change                         Max.-Flux-Residual
  Residual-Control   Outer-Iter.   Inner-Iter.     Column Row Layer    Maximum-Head-Change  Column Row Layer    Maximum-Flux-Residual          L2-NORM 
          0                 1           2             5    8     1       0.2076717545E+00       5    8    1         0.1129882310E+02      0.2771293376E+02
          0                 2           2             5    8     1      -0.2020013448E-01       5    8    1        -0.1129836332E+01      0.2770754701E+01
          0                 3           2             4    7     1      -0.6880023259E-01       4    7    1        -0.3692255576E+01      0.9049454358E+01
          0                 4           2             4    7     1       0.7257907155E-01       4    7    1         0.4003501587E+01      0.9804048725E+01
          0                 5           2             4    7     1      -0.2888704917E-02       4    7    1        -0.1637885790E+00      0.4011817810E+00
          0                 6           1             4    7     1       0.3564537850E-04       5    8    1         0.2077585701E-02      0.5089732432E-02

    ------------------------------------------------
       NWT REQUIRED            6 OUTER ITERATIONS 
       AND A TOTAL OF         11 INNER ITERATIONS.
    ------------------------------------------------

 NO OUTPUT CONTROL FOR STRESS PERIOD    7   TIME STEP    4
 
 SOLVING FOR HEAD 
                                                   Max.-Head-Change                         Max.-Flux-Residual
  Residual-Control   Outer-Iter.   Inner-Iter.     Column Row Layer    Maximum-Head-Change  Column Row Layer    Maximum-Flux-Residual          L2-NORM 
          0                 1           2             5    8     1       0.5666731238E+00       5    8    1         0.3110627813E+02      0.3959801435E+02
          0                 2           2             5    8     1       0.2621052582E+00       5    8    1         0.1448029973E+02      0.1468600814E+02
          0                 3           2             4    7     1      -0.6874415113E-01       4    7    1        -0.3692059679E+01      0.8919773464E+01
          0                 4           2             5    8     1       0.9856106960E-01       5    8    1         0.5318071443E+01      0.1041190148E+02
          0                 5           2             5    8     1       0.4828161457E-01       5    8    1         0.2669269709E+01      0.2693715447E+01
          0                 6           2             5    8     1       0.2365120664E-01       5    8    1         0.1305056137E+01      0.1305084717E+01
          0                 7           2             5    8     1       0.1158576271E-01       5    8    1         0.6393078241E+00      0.6393164372E+00
          0                 8           1             5    8     1       0.5675390913E-02       5    8    1         0.3131714286E+00      0.3131756043E+00
          0                 9           1             5    8     1       0.2780141152E-02       5    8    1         0.1534099613E+00      0.1534120055E+00
          0                10           1             5    8     1       0.1361876952E-02       5    8    1         0.7514926938E-01      0.7515027041E-01
                                                   Max.-Head-Change                         Max.-Flux-Residual
  Residual-Control   Outer-Iter.   Inner-Iter.     Column Row Layer    Maximum-Head-Change  Column Row Layer    Maximum-Flux-Residual          L2-NORM 
          0                11           1             5    8     1       0.6671275466E-03       5    8    1         0.3681254624E-01      0.3681303676E-01
          0                12           1             5    8     1       0.3267983585E-03       5    8    1         0.1803295505E-01      0.1803319554E-01
          0                13           1             5    8     1       0.1600850792E-03       5    8    1         0.8833603816E-02      0.8833721444E-02
          0                14           1             5    8     1       0.7841909783E-04       5    8    1         0.4327219467E-02      0.4327279479E-02

    ------------------------------------------------
       NWT REQUIRED           14 OUTER ITERATIONS 
       AND A TOTAL OF         21 INNER ITERATIONS.
    ------------------------------------------------

 OUTPUT CONTROL FOR STRESS PERIOD    7   TIME STEP    5
    PRINT BUDGET
    SAVE BUDGET
 UBDSV1 SAVING "         STORAGE" ON UNIT 102 AT TIME STEP  5, STRESS PERIOD   7
 UBDSV2 SAVING "   CONSTANT HEAD" ON UNIT 102 AT TIME STEP  5, STRESS PERIOD   7
 UBDSV1 SAVING "FLOW RIGHT FACE " ON UNIT 102 AT TIME STEP  5, STRESS PERIOD   7
 UBDSV1 SAVING "FLOW FRONT FACE " ON UNIT 102 AT TIME STEP  5, STRESS PERIOD   7

  HEAD DEP BOUNDS   PERIOD    7   STEP     5
 BOUNDARY      1   LAYER   1   ROW    13   COL     1   RATE   -0.288835    
 BOUNDARY      2   LAYER   1   ROW    14   COL     9   RATE    0.285771    



 STREAM LISTING     PERIOD      7   STEP        5

 LAYER ROW COL. STREAM  RCH.  FLOW INTO     FLOW TO   FLOW OUT OF   OVRLND.     DIRECT     STREAM       STREAM     STREAM     STREAM   STREAMBED  STREAMBED
                SEG.NO.  NO.  STRM. RCH.    AQUIFER    STRM. RCH.    RUNOFF     PRECIP       ET          HEAD       DEPTH      WIDTH   CONDCTNC.   GRADIENT

   1    1    1     1     1    6.2250E+01  3.7978E-01   6.1870E+01  0.000E+00  0.000E+00  0.000E+00  1.09460E+03  1.553E+00  1.854E+01  8.342E-02  1.518E+00
   1    2    2     1     2    6.1870E+01  5.8817E-01   6.1282E+01  0.000E+00  0.000E+00  0.000E+00  1.08961E+03  1.547E+00  1.848E+01  1.294E-01  1.516E+00
   1    3    3     1     3    6.1282E+01  5.0163E-01   6.0781E+01  0.000E+00  0.000E+00  0.000E+00  1.08396E+03  1.540E+00  1.841E+01  1.105E-01  1.513E+00
   1    3    4     1     4    6.0781E+01  4.6194E-01   6.0319E+01  0.000E+00  0.000E+00  0.000E+00  1.07894E+03  1.534E+00  1.836E+01  1.019E-01  1.511E+00
   1    4    5     2     1    5.8319E+01  3.9026E-01   5.7928E+01  0.000E+00  0.000E+00  0.000E+00  1.07394E+03  2.003E+00  1.200E+01  7.800E-02  1.668E+00
   1    5    6     2     2    5.7928E+01  2.9977E-01   5.7629E+01  0.000E+00  0.000E+00  0.000E+00  1.06851E+03  1.996E+00  1.200E+01  6.000E-02  1.665E+00
   1    6    6     2     3    5.7629E+01  2.9940E-01   5.7329E+01  0.000E+00  0.000E+00  0.000E+00  1.06378E+03  1.990E+00  1.200E+01  6.000E-02  1.663E+00
   1    7    6     2     4    5.7329E+01  2.9903E-01   5.7030E+01  0.000E+00  0.000E+00  0.000E+00  1.05906E+03  1.984E+00  1.200E+01  6.000E-02  1.661E+00
   1    8    6     2     5    5.7030E+01  2.9865E-01   5.6732E+01  0.000E+00  0.000E+00  0.000E+00  1.05434E+03  1.978E+00  1.200E+01  6.000E-02  1.659E+00
   1    3    5     3     1    2.0000E+00  2.8252E-01   1.7175E+00  0.000E+00  0.000E+00  0.000E+00  1.07555E+03  1.909E+00  9.636E+00  7.227E-02  1.955E+00
   1    3    6     3     2    1.7175E+00  2.4905E-01   1.4684E+00  0.000E+00  0.000E+00  0.000E+00  1.07264E+03  1.727E+00  8.909E+00  6.682E-02  1.864E+00
   1    3    7     3     3    1.4684E+00  1.9718E-01   1.2712E+00  0.000E+00  0.000E+00  0.000E+00  1.06987E+03  1.555E+00  8.218E+00  5.547E-02  1.777E+00
   1    4    8     3     4    1.2712E+00  2.2567E-01   1.0456E+00  0.000E+00  0.000E+00  0.000E+00  1.06682E+03  1.364E+00  7.455E+00  6.709E-02  1.682E+00
   1    5    8     3     5    1.0456E+00  1.5790E-01   8.8768E-01  0.000E+00  0.000E+00  0.000E+00  1.06362E+03  1.164E+00  6.655E+00  4.991E-02  1.582E+00
   1    6    8     3     6    8.8768E-01  5.5980E-02   8.3170E-01  0.000E+00  0.000E+00  0.000E+00  1.06158E+03  1.036E+00  6.145E+00  1.844E-02  1.518E+00
   1    5   10     4     1    1.0000E+01  9.0919E-02   9.9091E+00  0.000E+00  0.000E+00  0.000E+00  1.07836E+03  6.368E-01  1.000E+01  2.500E-02  1.212E+00
   1    5    9     4     2    9.9091E+00  1.8158E-01   9.7275E+00  0.000E+00  0.000E+00  0.000E+00  1.07154E+03  6.315E-01  1.000E+01  5.000E-02  1.211E+00
   1    6    8     4     3    9.7275E+00  1.2689E-01   9.6006E+00  0.000E+00  0.000E+00  0.000E+00  1.06381E+03  6.256E-01  1.000E+01  3.500E-02  1.209E+00
   1    6    8     5     1    1.0432E+01  2.2686E-01   1.0205E+01  0.000E+00  0.000E+00  0.000E+00  1.05868E+03  6.790E-01  1.542E+01  6.166E-02  1.226E+00
   1    7    7     5     2    1.0205E+01  2.7894E-01   9.9265E+00  0.000E+00  0.000E+00  0.000E+00  1.05417E+03  6.732E-01  1.519E+01  7.594E-02  1.224E+00
   1    8    7     5     3    9.9265E+00  1.9221E-01   9.7343E+00  0.000E+00  0.000E+00  0.000E+00  1.04992E+03  6.676E-01  1.497E+01  5.241E-02  1.223E+00
   1    8    6     5     4    9.7343E+00  1.3577E-01   9.5985E+00  0.000E+00  0.000E+00  0.000E+00  1.04691E+03  6.637E-01  1.482E+01  3.706E-02  1.221E+00
   1    9    6     6     1    4.3860E+01  2.8245E-01   4.3578E+01  0.000E+00  0.000E+00  0.000E+00  1.04443E+03  1.708E+00  1.200E+01  6.000E-02  1.569E+00
   1   10    7     6     2    4.3578E+01  2.8206E-01   4.3296E+01  0.000E+00  0.000E+00  0.000E+00  1.03988E+03  1.701E+00  1.200E+01  6.000E-02  1.567E+00
   1   11    7     6     3    4.3296E+01  2.8166E-01   4.3014E+01  0.000E+00  0.000E+00  0.000E+00  1.03533E+03  1.694E+00  1.200E+01  6.000E-02  1.565E+00
   1   12    7     6     4    4.3014E+01  2.8126E-01   4.2733E+01  0.000E+00  0.000E+00  0.000E+00  1.03078E+03  1.688E+00  1.200E+01  6.000E-02  1.563E+00
   1   13    7     6     5    4.2733E+01  1.2235E-02   4.2720E+01  0.000E+00  0.000E+00  0.000E+00  1.02759E+03  1.684E+00  1.200E+01  2.400E-02  1.699E-01
   1   14    9     7     1    1.5000E+02  1.3360E+00   1.4866E+02  0.000E+00  0.000E+00  0.000E+00  1.03987E+03  2.288E+00  5.529E+01  5.593E-01  7.962E-01
   1   13    8     7     2    1.4866E+02  1.8291E+00   1.4683E+02  0.000E+00  0.000E+00  0.000E+00  1.03478E+03  2.279E+00  5.526E+01  6.148E-01  9.918E-01
   1   13    7     7     3    1.4683E+02  1.4556E+00   1.4538E+02  0.000E+00  0.000E+00  0.000E+00  1.02969E+03  2.271E+00  5.522E+01  5.585E-01  8.688E-01
   1   13    6     8     1    1.8810E+02  9.6933E-01   1.8713E+02  0.000E+00  0.000E+00  0.000E+00  1.02494E+03  3.063E+00  4.442E+01  4.526E-01  7.138E-01
   1   13    5     8     2    1.8713E+02  1.8899E-01   1.8694E+02  0.000E+00  0.000E+00  0.000E+00  1.01868E+03  3.060E+00  4.437E+01  4.521E-01  1.393E-01
   1   13    4     8     3    1.8694E+02 -2.1950E+00   1.8914E+02  0.000E+00  0.000E+00  0.000E+00  1.01244E+03  3.066E+00  4.446E+01  4.530E+00 -1.615E-01
   1   13    3     8     4    1.8914E+02 -3.3354E+00   1.9247E+02  0.000E+00  0.000E+00  0.000E+00  1.00621E+03  3.083E+00  4.470E+01  4.555E+00 -2.441E-01
   1   13    2     8     5    1.9247E+02 -2.1366E+00   1.9461E+02  0.000E+00  0.000E+00  0.000E+00  9.99974E+02  3.099E+00  4.494E+01  4.580E+00 -1.555E-01
   1   13    1     8     6    1.9461E+02 -1.6965E+00   1.9630E+02  0.000E+00  0.000E+00  0.000E+00  9.94986E+02  3.111E+00  4.511E+01  2.758E+00 -2.050E-01
   1    8    6     9     1    2.2470E+01  0.0000E+00   2.2470E+01  0.000E+00  0.000E+00  0.000E+00  1.08243E+03  3.683E+00  4.000E+00  0.000E+00  2.228E+00
   1    8    5     9     2    2.2470E+01  0.0000E+00   2.2470E+01  0.000E+00  0.000E+00  0.000E+00  1.08193E+03  3.683E+00  4.000E+00  0.000E+00  2.228E+00



 UBDSV3 SAVING "           GW ET" ON UNIT  61 AT TIME STEP  5, STRESS PERIOD   7
 UBDSV3 SAVING "    UZF RECHARGE" ON UNIT  61 AT TIME STEP  5, STRESS PERIOD   7
 UBDSV3 SAVING " SURFACE LEAKAGE" ON UNIT  61 AT TIME STEP  5, STRESS PERIOD   7
 UBDSV3 SAVING "       HORT+DUNN" ON UNIT  61 AT TIME STEP  5, STRESS PERIOD   7
 UBDSV3 SAVING "  STORAGE CHANGE" ON UNIT  61 AT TIME STEP  5, STRESS PERIOD   7


UNSATURATED ZONE PACKAGE VOLUMETRIC BUDGET FOR  TIME STEP     5 STRESS PERIOD    7
  ------------------------------------------------------------------------------



     CUMULATIVE VOLUMES      L**3       RATES FOR THIS TIME STEP      L**3/T
     ------------------                 ------------------------

           IN:                                      IN:
           ---                                      ---
        INFILTRATION =   780222644.3615          INFILTRATION =          23.3179

          OUT:                                     OUT:
          ----                                     ----
              UZF ET =    52943572.1038                UZF ET =          23.3175
        UZF RECHARGE =     4862405.0000          UZF RECHARGE =          54.6294

            IN - OUT =   722416667.2577              IN - OUT =         -54.6290

          STORAGE:                                 STORAGE:
          --------                                 --------
      STORAGE CHANGE =   722420580.1137        STORAGE CHANGE =         -54.6328

 PERCENT DISCREPANCY IS DIFFERENCE BETWEEN IN-OUT MINUS CHANGE IN STORAGE
 DIVIDED BY THE AVERAGE OF IN AND OUT TIMES 100

 PERCENT DISCREPANCY =          -0.00     PERCENT DISCREPANCY =           0.00






 

        AG WELLS          PERIOD    7   STEP   5
 AG WELL      1   LAYER   1   ROW     6   COL     4   RATE     0.00000    
 AG WELL      2   LAYER   1   ROW     6   COL     5   RATE     0.00000    
 AG WELL      3   LAYER   1   ROW     7   COL     4   RATE     0.00000    
 AG WELL      4   LAYER   1   ROW     7   COL     5   RATE     0.00000    
 AG WELL      5   LAYER   1   ROW     8   COL     4   RATE     0.00000    
 AG WELL      6   LAYER   1   ROW     8   COL     5   RATE     0.00000    
 
 

   DIVERSION SEGMENTS     PERIOD    7   STEP   5
 SEGMENT      9   RATE     22.4700    
 
 

        SW IRRIGATION     PERIOD    7   STEP   5
 SEGMENT      9   ROW     6   COL     4   RATE     3.74507    
 SEGMENT      9   ROW     6   COL     5   RATE     3.74507    
 SEGMENT      9   ROW     7   COL     4   RATE     3.74507    
 SEGMENT      9   ROW     7   COL     5   RATE     3.74507    
 SEGMENT      9   ROW     8   COL     4   RATE     3.74507    
 SEGMENT      9   ROW     8   COL     5   RATE     3.74507    
 
 

        GW IRRIGATION     PERIOD    7   STEP   5
 AG WELL      1   ROW     6   COL     4   RATE     0.00000    
 AG WELL      2   ROW     6   COL     5   RATE     0.00000    
 AG WELL      3   ROW     7   COL     4   RATE     0.00000    
 AG WELL      4   ROW     7   COL     5   RATE     0.00000    
 AG WELL      5   ROW     8   COL     4   RATE     0.00000    
 AG WELL      6   ROW     8   COL     5   RATE     0.00000    
 
1
  VOLUMETRIC BUDGET FOR AGRICULTURAL FIELDS AT  END OF TIME STEP    5, STRESS PERIOD   7
  ------------------------------------------------------------------------------

     CUMULATIVE VOLUMES      L**3       RATES FOR THIS TIME STEP      L**3/T
     ------------------                 ------------------------

           IN:                                      IN:
           ---                                      ---
           AG WELLS      =   537334336.0000             AG WELLS      =           0.0000
      DIVERSION SEGMENTS =   231294160.0000        DIVERSION SEGMENTS =          22.4700
           GW IRRIGATION =           0.0000             GW IRRIGATION =           0.0000
           SW IRRIGATION =           0.0000             SW IRRIGATION =           0.0000
        SYSTEM LOSSES GW =           0.0000          SYSTEM LOSSES GW =           0.0000
        SYSTEM LOSSES SW =           0.0000          SYSTEM LOSSES SW =           0.0000

                TOTAL IN =   768628480.0000                  TOTAL IN =          22.4700

          OUT:                                     OUT:
          ----                                     ----
           AG WELLS      =           0.0000             AG WELLS      =           0.0000
      DIVERSION SEGMENTS =           0.0000        DIVERSION SEGMENTS =           0.0000
           GW IRRIGATION =   537334336.0000             GW IRRIGATION =           0.0000
           SW IRRIGATION =   231298880.0000             SW IRRIGATION =          22.4704
        SYSTEM LOSSES GW =           0.0000          SYSTEM LOSSES GW =           0.0000
        SYSTEM LOSSES SW =           0.0000          SYSTEM LOSSES SW =           0.0000

               TOTAL OUT =   768633216.0000                 TOTAL OUT =          22.4704

                IN - OUT =       -4736.0000                  IN - OUT =      -4.4823E-04

     PERCENT DISCREPANCY =          -0.00         PERCENT DISCREPANCY =          -0.00



1
  VOLUMETRIC BUDGET FOR ENTIRE MODEL AT END OF TIME STEP    5, STRESS PERIOD   7
  ------------------------------------------------------------------------------

     CUMULATIVE VOLUMES      L**3       RATES FOR THIS TIME STEP      L**3/T
     ------------------                 ------------------------

           IN:                                      IN:
           ---                                      ---
             STORAGE     =   573818752.0000               STORAGE     =          53.4021
       CONSTANT HEAD     =           0.0000         CONSTANT HEAD     =           0.0000
     HEAD DEP BOUNDS     =     3907059.0000       HEAD DEP BOUNDS     =           0.2858
      STREAM LEAKAGE     =   164187056.0000        STREAM LEAKAGE     =          12.8388
        UZF RECHARGE     =     4862405.0000          UZF RECHARGE     =          54.6294
               GW ET     =           0.0000                 GW ET     =           0.0000
     SURFACE LEAKAGE     =           0.0000       SURFACE LEAKAGE     =           0.0000
           AG WELLS      =           0.0000             AG WELLS      =           0.0000

                TOTAL IN =   746775296.0000                  TOTAL IN =         121.1561

          OUT:                                     OUT:
          ----                                     ----
             STORAGE     =    56907128.0000               STORAGE     =         111.5017
       CONSTANT HEAD     =           0.0000         CONSTANT HEAD     =           0.0000
     HEAD DEP BOUNDS     =     3966984.7500       HEAD DEP BOUNDS     =           0.2888
      STREAM LEAKAGE     =   148535168.0000        STREAM LEAKAGE     =           9.3634
        UZF RECHARGE     =           0.0000          UZF RECHARGE     =           0.0000
               GW ET     =       34549.5586                 GW ET     =           0.0000
     SURFACE LEAKAGE     =           0.0000       SURFACE LEAKAGE     =           0.0000
           AG WELLS      =   537334336.0000             AG WELLS      =           0.0000

               TOTAL OUT =   746778176.0000                 TOTAL OUT =         121.1539

                IN - OUT =       -2880.0000                  IN - OUT =       2.1515E-03

     PERCENT DISCREPANCY =          -0.00         PERCENT DISCREPANCY =           0.00






         TIME SUMMARY AT END OF TIME STEP    5 IN STRESS PERIOD    7
                    SECONDS     MINUTES      HOURS       DAYS        YEARS
                    -----------------------------------------------------------
   TIME STEP LENGTH  87667.      1461.1      24.352      1.0147     2.77799E-03
 STRESS PERIOD TIME 4.38333E+05  7305.6      121.76      5.0733     1.38899E-02
         TOTAL TIME 1.36747E+07 2.27912E+05  3798.5      158.27     0.43333    
1
 
 SOLVING FOR HEAD 
                                                   Max.-Head-Change                         Max.-Flux-Residual
  Residual-Control   Outer-Iter.   Inner-Iter.     Column Row Layer    Maximum-Head-Change  Column Row Layer    Maximum-Flux-Residual          L2-NORM 
          0                 1           2             5    8     1       0.7615502914E+00       5    8    1         0.4181653159E+02      0.4829172479E+02
          0                 2           2             5    8     1       0.3672287394E+00       5    8    1         0.2028949394E+02      0.2043263213E+02
          0                 3           2             5    8     1       0.1088998833E+00       5    8    1         0.6122356590E+01      0.1028734651E+02
          0                 4           2             5    8     1       0.1229318883E+00       5    8    1         0.6663813487E+01      0.1116009356E+02
          0                 5           2             5    8     1       0.5985726463E-01       5    8    1         0.3308666642E+01      0.3328308618E+01
          0                 6           2             5    8     1       0.2914500821E-01       5    8    1         0.1608510529E+01      0.1608540178E+01
          0                 7           2             5    8     1       0.1419094293E-01       5    8    1         0.7832074797E+00      0.7832182315E+00
          0                 8           2             5    8     1       0.6909683017E-02       5    8    1         0.3813508362E+00      0.3813560426E+00
          0                 9           1             5    8     1       0.3364378879E-02       5    8    1         0.1856828994E+00      0.1856854331E+00
          0                10           1             5    8     1       0.1638142296E-02       5    8    1         0.9041049541E-01      0.9041172867E-01
                                                   Max.-Head-Change                         Max.-Flux-Residual
  Residual-Control   Outer-Iter.   Inner-Iter.     Column Row Layer    Maximum-Head-Change  Column Row Layer    Maximum-Flux-Residual          L2-NORM 
          0                11           1             5    8     1       0.7976242088E-03       5    8    1         0.4402158350E-01      0.4402218381E-01
          0                12           1             5    8     1       0.3883694127E-03       5    8    1         0.2143445322E-01      0.2143474544E-01
          0                13           1             5    8     1       0.1891000765E-03       5    8    1         0.1043660215E-01      0.1043674440E-01
          0                14           1             5    8     1       0.9207429179E-04       5    8    1         0.5081662657E-02      0.5081731905E-02

    ------------------------------------------------
       NWT REQUIRED           14 OUTER ITERATIONS 
       AND A TOTAL OF         22 INNER ITERATIONS.
    ------------------------------------------------

 NO OUTPUT CONTROL FOR STRESS PERIOD    7   TIME STEP    6
 
 SOLVING FOR HEAD 
                                                   Max.-Head-Change                         Max.-Flux-Residual
  Residual-Control   Outer-Iter.   Inner-Iter.     Column Row Layer    Maximum-Head-Change  Column Row Layer    Maximum-Flux-Residual          L2-NORM 
          0                 1           2             5    8     1       0.6493751679E+00       5    8    1         0.3556560387E+02      0.4302156063E+02
          0                 2           2             5    8     1       0.2867327695E+00       5    8    1         0.1585608416E+02      0.1603964625E+02
          0                 3           2             4    7     1      -0.6872834632E-01       4    7    1        -0.3691379087E+01      0.8878167937E+01
          0                 4           2             5    8     1       0.9493768370E-01       5    8    1         0.5119194059E+01      0.1031136948E+02
          0                 5           2             5    8     1       0.4191915744E-01       5    8    1         0.2318941456E+01      0.2347053180E+01
          0                 6           2             5    8     1       0.1850896089E-01       5    8    1         0.1021622207E+01      0.1021654117E+01
          0                 7           2             5    8     1       0.8172440759E-02       5    8    1         0.4511002567E+00      0.4511079659E+00
          0                 8           1             5    8     1       0.3608457152E-02       5    8    1         0.1991791065E+00      0.1991824594E+00
          0                 9           1             5    8     1       0.1593277185E-02       5    8    1         0.8794553689E-01      0.8794701614E-01
          0                10           1             5    8     1       0.7034951828E-03       5    8    1         0.3883145854E-01      0.3883211148E-01
                                                   Max.-Head-Change                         Max.-Flux-Residual
  Residual-Control   Outer-Iter.   Inner-Iter.     Column Row Layer    Maximum-Head-Change  Column Row Layer    Maximum-Flux-Residual          L2-NORM 
          0                11           1             5    8     1       0.3106210768E-03       5    8    1         0.1714563400E-01      0.1714592222E-01
          0                12           1             5    8     1       0.1371515480E-03       5    8    1         0.7570479207E-02      0.7570606437E-02
          0                13           1             5    8     1       0.6055785849E-04       5    8    1         0.3342667542E-02      0.3342723704E-02

    ------------------------------------------------
       NWT REQUIRED           13 OUTER ITERATIONS 
       AND A TOTAL OF         20 INNER ITERATIONS.
    ------------------------------------------------

 NO OUTPUT CONTROL FOR STRESS PERIOD    7   TIME STEP    7
 
 SOLVING FOR HEAD 
                                                   Max.-Head-Change                         Max.-Flux-Residual
  Residual-Control   Outer-Iter.   Inner-Iter.     Column Row Layer    Maximum-Head-Change  Column Row Layer    Maximum-Flux-Residual          L2-NORM 
          0                 1           2             5    8     1       0.3353605060E+00       5    8    1         0.1818805026E+02      0.3029057274E+02
          0                 2           2             5    8     1       0.1480673689E+00       5    8    1         0.8207018177E+01      0.8556868883E+01
          0                 3           2             4    7     1      -0.6874492754E-01       4    7    1        -0.3690898277E+01      0.8267434076E+01
          0                 4           2             4    7     1       0.7257572497E-01       4    7    1         0.4003404829E+01      0.9655216687E+01
          0                 5           2             5    8     1       0.3026556931E-01       5    8    1         0.1770756644E+01      0.1808228361E+01
          0                 6           2             5    8     1       0.1427052064E-01       5    8    1         0.8324881097E+00      0.8325057385E+00
          0                 7           2             5    8     1       0.6728625048E-02       5    8    1         0.3925379312E+00      0.3925394371E+00
          0                 8           1             5    8     1       0.3172547850E-02       5    8    1         0.1850803688E+00      0.1850810441E+00
          0                 9           1             5    8     1       0.1495840775E-02       5    8    1         0.8726369229E-01      0.8726401018E-01
          0                10           1             5    8     1       0.7052740128E-03       5    8    1         0.4114357447E-01      0.4114372435E-01
                                                   Max.-Head-Change                         Max.-Flux-Residual
  Residual-Control   Outer-Iter.   Inner-Iter.     Column Row Layer    Maximum-Head-Change  Column Row Layer    Maximum-Flux-Residual          L2-NORM 
          0                11           1             5    8     1       0.3325260867E-03       5    8    1         0.1939839198E-01      0.1939846268E-01
          0                12           1             5    8     1       0.1567793593E-03       5    8    1         0.9145864094E-02      0.9145897698E-02
          0                13           1             5    8     1       0.7391751775E-04       5    8    1         0.4312003145E-02      0.4312019249E-02

    ------------------------------------------------
       NWT REQUIRED           13 OUTER ITERATIONS 
       AND A TOTAL OF         20 INNER ITERATIONS.
    ------------------------------------------------

 NO OUTPUT CONTROL FOR STRESS PERIOD    7   TIME STEP    8
 
 SOLVING FOR HEAD 
                                                   Max.-Head-Change                         Max.-Flux-Residual
  Residual-Control   Outer-Iter.   Inner-Iter.     Column Row Layer    Maximum-Head-Change  Column Row Layer    Maximum-Flux-Residual          L2-NORM 
          0                 1           2             5    8     1       0.3011986371E+00       5    8    1         0.1628749071E+02      0.2890441780E+02
          0                 2           2             5    8     1       0.1324257000E+00       5    8    1         0.7345518651E+01      0.7723761890E+01
          0                 3           2             4    7     1      -0.6874040495E-01       4    7    1        -0.3690445883E+01      0.8285616205E+01
          0                 4           2             4    7     1       0.7257420007E-01       4    7    1         0.4003372592E+01      0.9588183499E+01
          0                 5           2             5    8     1       0.2852223350E-01       5    8    1         0.1669151061E+01      0.1708853132E+01
          0                 6           2             5    8     1       0.1332492269E-01       5    8    1         0.7773672091E+00      0.7773857536E+00
          0                 7           2             5    8     1       0.6225028511E-02       5    8    1         0.3631800903E+00      0.3631815214E+00
          0                 8           1             5    8     1       0.2908126289E-02       5    8    1         0.1696644552E+00      0.1696650882E+00
          0                 9           1             5    8     1       0.1358565043E-02       5    8    1         0.7926000016E-01      0.7926029531E-01
          0                10           1             5    8     1       0.6346625272E-03       5    8    1         0.3702647789E-01      0.3702661575E-01
                                                   Max.-Head-Change                         Max.-Flux-Residual
  Residual-Control   Outer-Iter.   Inner-Iter.     Column Row Layer    Maximum-Head-Change  Column Row Layer    Maximum-Flux-Residual          L2-NORM 
          0                11           1             5    8     1       0.2964834955E-03       5    8    1         0.1729680682E-01      0.1729687122E-01
          0                12           1             5    8     1       0.1385011662E-03       5    8    1         0.8080061931E-02      0.8080092015E-02
          0                13           1             5    8     1       0.6469959775E-04       5    8    1         0.3774493453E-02      0.3774507516E-02

    ------------------------------------------------
       NWT REQUIRED           13 OUTER ITERATIONS 
       AND A TOTAL OF         20 INNER ITERATIONS.
    ------------------------------------------------

 NO OUTPUT CONTROL FOR STRESS PERIOD    7   TIME STEP    9
 
 SOLVING FOR HEAD 
                                                   Max.-Head-Change                         Max.-Flux-Residual
  Residual-Control   Outer-Iter.   Inner-Iter.     Column Row Layer    Maximum-Head-Change  Column Row Layer    Maximum-Flux-Residual          L2-NORM 
          0                 1           2             5    8     1       0.2364921576E+00       5    8    1         0.1270403342E+02      0.2673803886E+02
          0                 2           2             5    8     1       0.1013931321E+00       5    8    1         0.5633645621E+01      0.6105049434E+01
          0                 3           2             4    7     1      -0.6873983401E-01       4    7    1        -0.3690030875E+01      0.8378715569E+01
          0                 4           2             4    7     1       0.7257150330E-01       4    7    1         0.4003343241E+01      0.9467975684E+01
          0                 5           2             5    8     1       0.2528253977E-01       5    8    1         0.1480215043E+01      0.1524845256E+01
          0                 6           2             5    8     1       0.1161526989E-01       5    8    1         0.6776558667E+00      0.6776762000E+00
          0                 7           1             5    8     1       0.5336214440E-02       5    8    1         0.3113415431E+00      0.3113427239E+00
          0                 8           1             5    8     1       0.2451502698E-02       5    8    1         0.1430319973E+00      0.1430325018E+00
          0                 9           1             5    8     1       0.1126228694E-02       5    8    1         0.6570878282E-01      0.6570901402E-01
          0                10           1             5    8     1       0.5173874624E-03       5    8    1         0.3018621305E-01      0.3018631925E-01
                                                   Max.-Head-Change                         Max.-Flux-Residual
  Residual-Control   Outer-Iter.   Inner-Iter.     Column Row Layer    Maximum-Head-Change  Column Row Layer    Maximum-Flux-Residual          L2-NORM 
          0                11           1             5    8     1       0.2376841970E-03       5    8    1         0.1386720385E-01      0.1386725263E-01
          0                12           1             5    8     1       0.1091892308E-03       5    8    1         0.6370363899E-02      0.6370386353E-02
          0                13           1             5    8     1       0.5015963816E-04       5    8    1         0.2926406590E-02      0.2926416958E-02

    ------------------------------------------------
       NWT REQUIRED           13 OUTER ITERATIONS 
       AND A TOTAL OF         19 INNER ITERATIONS.
    ------------------------------------------------

 OUTPUT CONTROL FOR STRESS PERIOD    7   TIME STEP   10
    PRINT BUDGET
    SAVE BUDGET
 UBDSV1 SAVING "         STORAGE" ON UNIT 102 AT TIME STEP 10, STRESS PERIOD   7
 UBDSV2 SAVING "   CONSTANT HEAD" ON UNIT 102 AT TIME STEP 10, STRESS PERIOD   7
 UBDSV1 SAVING "FLOW RIGHT FACE " ON UNIT 102 AT TIME STEP 10, STRESS PERIOD   7
 UBDSV1 SAVING "FLOW FRONT FACE " ON UNIT 102 AT TIME STEP 10, STRESS PERIOD   7

  HEAD DEP BOUNDS   PERIOD    7   STEP    10
 BOUNDARY      1   LAYER   1   ROW    13   COL     1   RATE   -0.289683    
 BOUNDARY      2   LAYER   1   ROW    14   COL     9   RATE    0.285774    



 STREAM LISTING     PERIOD      7   STEP       10

 LAYER ROW COL. STREAM  RCH.  FLOW INTO     FLOW TO   FLOW OUT OF   OVRLND.     DIRECT     STREAM       STREAM     STREAM     STREAM   STREAMBED  STREAMBED
                SEG.NO.  NO.  STRM. RCH.    AQUIFER    STRM. RCH.    RUNOFF     PRECIP       ET          HEAD       DEPTH      WIDTH   CONDCTNC.   GRADIENT

   1    1    1     1     1    6.2250E+01  3.7978E-01   6.1870E+01  0.000E+00  0.000E+00  0.000E+00  1.09460E+03  1.553E+00  1.854E+01  8.342E-02  1.518E+00
   1    2    2     1     2    6.1870E+01  5.8817E-01   6.1282E+01  0.000E+00  0.000E+00  0.000E+00  1.08961E+03  1.547E+00  1.848E+01  1.294E-01  1.516E+00
   1    3    3     1     3    6.1282E+01  5.0163E-01   6.0781E+01  0.000E+00  0.000E+00  0.000E+00  1.08396E+03  1.540E+00  1.841E+01  1.105E-01  1.513E+00
   1    3    4     1     4    6.0781E+01  4.6194E-01   6.0319E+01  0.000E+00  0.000E+00  0.000E+00  1.07894E+03  1.534E+00  1.836E+01  1.019E-01  1.511E+00
   1    4    5     2     1    5.8319E+01  3.9026E-01   5.7928E+01  0.000E+00  0.000E+00  0.000E+00  1.07394E+03  2.003E+00  1.200E+01  7.800E-02  1.668E+00
   1    5    6     2     2    5.7928E+01  2.9977E-01   5.7629E+01  0.000E+00  0.000E+00  0.000E+00  1.06851E+03  1.996E+00  1.200E+01  6.000E-02  1.665E+00
   1    6    6     2     3    5.7629E+01  2.9940E-01   5.7329E+01  0.000E+00  0.000E+00  0.000E+00  1.06378E+03  1.990E+00  1.200E+01  6.000E-02  1.663E+00
   1    7    6     2     4    5.7329E+01  2.9903E-01   5.7030E+01  0.000E+00  0.000E+00  0.000E+00  1.05906E+03  1.984E+00  1.200E+01  6.000E-02  1.661E+00
   1    8    6     2     5    5.7030E+01  2.9865E-01   5.6732E+01  0.000E+00  0.000E+00  0.000E+00  1.05434E+03  1.978E+00  1.200E+01  6.000E-02  1.659E+00
   1    3    5     3     1    2.0000E+00  2.8252E-01   1.7175E+00  0.000E+00  0.000E+00  0.000E+00  1.07555E+03  1.909E+00  9.636E+00  7.227E-02  1.955E+00
   1    3    6     3     2    1.7175E+00  2.4905E-01   1.4684E+00  0.000E+00  0.000E+00  0.000E+00  1.07264E+03  1.727E+00  8.909E+00  6.682E-02  1.864E+00
   1    3    7     3     3    1.4684E+00  1.9718E-01   1.2712E+00  0.000E+00  0.000E+00  0.000E+00  1.06987E+03  1.555E+00  8.218E+00  5.547E-02  1.777E+00
   1    4    8     3     4    1.2712E+00  2.2567E-01   1.0456E+00  0.000E+00  0.000E+00  0.000E+00  1.06682E+03  1.364E+00  7.455E+00  6.709E-02  1.682E+00
   1    5    8     3     5    1.0456E+00  1.5790E-01   8.8768E-01  0.000E+00  0.000E+00  0.000E+00  1.06362E+03  1.164E+00  6.655E+00  4.991E-02  1.582E+00
   1    6    8     3     6    8.8768E-01  5.5980E-02   8.3170E-01  0.000E+00  0.000E+00  0.000E+00  1.06158E+03  1.036E+00  6.145E+00  1.844E-02  1.518E+00
   1    5   10     4     1    1.0000E+01  9.0919E-02   9.9091E+00  0.000E+00  0.000E+00  0.000E+00  1.07836E+03  6.368E-01  1.000E+01  2.500E-02  1.212E+00
   1    5    9     4     2    9.9091E+00  1.8158E-01   9.7275E+00  0.000E+00  0.000E+00  0.000E+00  1.07154E+03  6.315E-01  1.000E+01  5.000E-02  1.211E+00
   1    6    8     4     3    9.7275E+00  1.2689E-01   9.6006E+00  0.000E+00  0.000E+00  0.000E+00  1.06381E+03  6.256E-01  1.000E+01  3.500E-02  1.209E+00
   1    6    8     5     1    1.0432E+01  2.2686E-01   1.0205E+01  0.000E+00  0.000E+00  0.000E+00  1.05868E+03  6.790E-01  1.542E+01  6.166E-02  1.226E+00
   1    7    7     5     2    1.0205E+01  2.7894E-01   9.9265E+00  0.000E+00  0.000E+00  0.000E+00  1.05417E+03  6.732E-01  1.519E+01  7.594E-02  1.224E+00
   1    8    7     5     3    9.9265E+00  1.9221E-01   9.7343E+00  0.000E+00  0.000E+00  0.000E+00  1.04992E+03  6.676E-01  1.497E+01  5.241E-02  1.223E+00
   1    8    6     5     4    9.7343E+00  1.3577E-01   9.5985E+00  0.000E+00  0.000E+00  0.000E+00  1.04691E+03  6.637E-01  1.482E+01  3.706E-02  1.221E+00
   1    9    6     6     1    4.3860E+01  2.8245E-01   4.3578E+01  0.000E+00  0.000E+00  0.000E+00  1.04443E+03  1.708E+00  1.200E+01  6.000E-02  1.569E+00
   1   10    7     6     2    4.3578E+01  2.8206E-01   4.3296E+01  0.000E+00  0.000E+00  0.000E+00  1.03988E+03  1.701E+00  1.200E+01  6.000E-02  1.567E+00
   1   11    7     6     3    4.3296E+01  2.8166E-01   4.3014E+01  0.000E+00  0.000E+00  0.000E+00  1.03533E+03  1.694E+00  1.200E+01  6.000E-02  1.565E+00
   1   12    7     6     4    4.3014E+01  2.8126E-01   4.2733E+01  0.000E+00  0.000E+00  0.000E+00  1.03078E+03  1.688E+00  1.200E+01  6.000E-02  1.563E+00
   1   13    7     6     5    4.2733E+01  1.2054E-02   4.2721E+01  0.000E+00  0.000E+00  0.000E+00  1.02759E+03  1.684E+00  1.200E+01  2.400E-02  1.674E-01
   1   14    9     7     1    1.5000E+02  1.3360E+00   1.4866E+02  0.000E+00  0.000E+00  0.000E+00  1.03987E+03  2.288E+00  5.529E+01  5.593E-01  7.963E-01
   1   13    8     7     2    1.4866E+02  1.8292E+00   1.4683E+02  0.000E+00  0.000E+00  0.000E+00  1.03478E+03  2.279E+00  5.526E+01  6.148E-01  9.918E-01
   1   13    7     7     3    1.4683E+02  1.4514E+00   1.4538E+02  0.000E+00  0.000E+00  0.000E+00  1.02969E+03  2.271E+00  5.522E+01  5.585E-01  8.663E-01
   1   13    6     8     1    1.8810E+02  9.6586E-01   1.8714E+02  0.000E+00  0.000E+00  0.000E+00  1.02494E+03  3.063E+00  4.442E+01  4.527E-01  7.113E-01
   1   13    5     8     2    1.8714E+02  1.8596E-01   1.8695E+02  0.000E+00  0.000E+00  0.000E+00  1.01868E+03  3.060E+00  4.437E+01  4.521E-01  1.371E-01
   1   13    4     8     3    1.8695E+02 -2.3157E+00   1.8927E+02  0.000E+00  0.000E+00  0.000E+00  1.01244E+03  3.066E+00  4.446E+01  4.531E+00 -1.704E-01
   1   13    3     8     4    1.8927E+02 -3.4557E+00   1.9272E+02  0.000E+00  0.000E+00  0.000E+00  1.00621E+03  3.084E+00  4.472E+01  4.557E+00 -2.528E-01
   1   13    2     8     5    1.9272E+02 -2.2731E+00   1.9500E+02  0.000E+00  0.000E+00  0.000E+00  9.99976E+02  3.101E+00  4.497E+01  4.582E+00 -1.654E-01
   1   13    1     8     6    1.9500E+02 -1.7525E+00   1.9675E+02  0.000E+00  0.000E+00  0.000E+00  9.94988E+02  3.113E+00  4.514E+01  2.760E+00 -2.117E-01
   1    8    6     9     1    2.2470E+01  0.0000E+00   2.2470E+01  0.000E+00  0.000E+00  0.000E+00  1.08243E+03  3.683E+00  4.000E+00  0.000E+00  2.228E+00
   1    8    5     9     2    2.2470E+01  0.0000E+00   2.2470E+01  0.000E+00  0.000E+00  0.000E+00  1.08193E+03  3.683E+00  4.000E+00  0.000E+00  2.228E+00



 UBDSV3 SAVING "           GW ET" ON UNIT  61 AT TIME STEP 10, STRESS PERIOD   7
 UBDSV3 SAVING "    UZF RECHARGE" ON UNIT  61 AT TIME STEP 10, STRESS PERIOD   7
 UBDSV3 SAVING " SURFACE LEAKAGE" ON UNIT  61 AT TIME STEP 10, STRESS PERIOD   7
 UBDSV3 SAVING "       HORT+DUNN" ON UNIT  61 AT TIME STEP 10, STRESS PERIOD   7
 UBDSV3 SAVING "  STORAGE CHANGE" ON UNIT  61 AT TIME STEP 10, STRESS PERIOD   7


UNSATURATED ZONE PACKAGE VOLUMETRIC BUDGET FOR  TIME STEP    10 STRESS PERIOD    7
  ------------------------------------------------------------------------------



     CUMULATIVE VOLUMES      L**3       RATES FOR THIS TIME STEP      L**3/T
     ------------------                 ------------------------

           IN:                                      IN:
           ---                                      ---
        INFILTRATION =   790443675.1534          INFILTRATION =          23.3179

          OUT:                                     OUT:
          ----                                     ----
              UZF ET =    63164409.5832                UZF ET =          23.3175
        UZF RECHARGE =    27151208.7500          UZF RECHARGE =          29.9412

            IN - OUT =   700128056.8202              IN - OUT =         -29.9408

          STORAGE:                                 STORAGE:
          --------                                 --------
      STORAGE CHANGE =   700130375.5051        STORAGE CHANGE =         -29.9439

 PERCENT DISCREPANCY IS DIFFERENCE BETWEEN IN-OUT MINUS CHANGE IN STORAGE
 DIVIDED BY THE AVERAGE OF IN AND OUT TIMES 100

 PERCENT DISCREPANCY =          -0.00     PERCENT DISCREPANCY =           0.01






 

        AG WELLS          PERIOD    7   STEP  10
 AG WELL      1   LAYER   1   ROW     6   COL     4   RATE     0.00000    
 AG WELL      2   LAYER   1   ROW     6   COL     5   RATE     0.00000    
 AG WELL      3   LAYER   1   ROW     7   COL     4   RATE     0.00000    
 AG WELL      4   LAYER   1   ROW     7   COL     5   RATE     0.00000    
 AG WELL      5   LAYER   1   ROW     8   COL     4   RATE     0.00000    
 AG WELL      6   LAYER   1   ROW     8   COL     5   RATE     0.00000    
 
 

   DIVERSION SEGMENTS     PERIOD    7   STEP  10
 SEGMENT      9   RATE     22.4700    
 
 

        SW IRRIGATION     PERIOD    7   STEP  10
 SEGMENT      9   ROW     6   COL     4   RATE     3.74507    
 SEGMENT      9   ROW     6   COL     5   RATE     3.74507    
 SEGMENT      9   ROW     7   COL     4   RATE     3.74507    
 SEGMENT      9   ROW     7   COL     5   RATE     3.74507    
 SEGMENT      9   ROW     8   COL     4   RATE     3.74507    
 SEGMENT      9   ROW     8   COL     5   RATE     3.74507    
 
 

        GW IRRIGATION     PERIOD    7   STEP  10
 AG WELL      1   ROW     6   COL     4   RATE     0.00000    
 AG WELL      2   ROW     6   COL     5   RATE     0.00000    
 AG WELL      3   ROW     7   COL     4   RATE     0.00000    
 AG WELL      4   ROW     7   COL     5   RATE     0.00000    
 AG WELL      5   ROW     8   COL     4   RATE     0.00000    
 AG WELL      6   ROW     8   COL     5   RATE     0.00000    
 
1
  VOLUMETRIC BUDGET FOR AGRICULTURAL FIELDS AT  END OF TIME STEP   10, STRESS PERIOD   7
  ------------------------------------------------------------------------------

     CUMULATIVE VOLUMES      L**3       RATES FOR THIS TIME STEP      L**3/T
     ------------------                 ------------------------

           IN:                                      IN:
           ---                                      ---
           AG WELLS      =   537334336.0000             AG WELLS      =           0.0000
      DIVERSION SEGMENTS =   241143520.0000        DIVERSION SEGMENTS =          22.4700
           GW IRRIGATION =           0.0000             GW IRRIGATION =           0.0000
           SW IRRIGATION =           0.0000             SW IRRIGATION =           0.0000
        SYSTEM LOSSES GW =           0.0000          SYSTEM LOSSES GW =           0.0000
        SYSTEM LOSSES SW =           0.0000          SYSTEM LOSSES SW =           0.0000

                TOTAL IN =   778477824.0000                  TOTAL IN =          22.4700

          OUT:                                     OUT:
          ----                                     ----
           AG WELLS      =           0.0000             AG WELLS      =           0.0000
      DIVERSION SEGMENTS =           0.0000        DIVERSION SEGMENTS =           0.0000
           GW IRRIGATION =   537334336.0000             GW IRRIGATION =           0.0000
           SW IRRIGATION =   241148400.0000             SW IRRIGATION =          22.4704
        SYSTEM LOSSES GW =           0.0000          SYSTEM LOSSES GW =           0.0000
        SYSTEM LOSSES SW =           0.0000          SYSTEM LOSSES SW =           0.0000

               TOTAL OUT =   778482752.0000                 TOTAL OUT =          22.4704

                IN - OUT =       -4928.0000                  IN - OUT =      -4.4823E-04

     PERCENT DISCREPANCY =          -0.00         PERCENT DISCREPANCY =          -0.00



1
  VOLUMETRIC BUDGET FOR ENTIRE MODEL AT END OF TIME STEP   10, STRESS PERIOD   7
  ------------------------------------------------------------------------------

     CUMULATIVE VOLUMES      L**3       RATES FOR THIS TIME STEP      L**3/T
     ------------------                 ------------------------

           IN:                                      IN:
           ---                                      ---
             STORAGE     =   593448384.0000               STORAGE     =          41.3226
       CONSTANT HEAD     =           0.0000         CONSTANT HEAD     =           0.0000
     HEAD DEP BOUNDS     =     4032322.7500       HEAD DEP BOUNDS     =           0.2858
      STREAM LEAKAGE     =   169811872.0000        STREAM LEAKAGE     =          12.8280
        UZF RECHARGE     =    27151208.0000          UZF RECHARGE     =          29.9412
               GW ET     =           0.0000                 GW ET     =           0.0000
     SURFACE LEAKAGE     =           0.0000       SURFACE LEAKAGE     =           0.0000
           AG WELLS      =           0.0000             AG WELLS      =           0.0000

                TOTAL IN =   794443776.0000                  TOTAL IN =          84.3775

          OUT:                                     OUT:
          ----                                     ----
             STORAGE     =   100223536.0000               STORAGE     =          74.2895
       CONSTANT HEAD     =           0.0000         CONSTANT HEAD     =           0.0000
     HEAD DEP BOUNDS     =     4093820.0000       HEAD DEP BOUNDS     =           0.2897
      STREAM LEAKAGE     =   152759632.0000        STREAM LEAKAGE     =           9.7970
        UZF RECHARGE     =           0.0000          UZF RECHARGE     =           0.0000
               GW ET     =       34549.5586                 GW ET     =           0.0000
     SURFACE LEAKAGE     =           0.0000       SURFACE LEAKAGE     =           0.0000
           AG WELLS      =   537334336.0000             AG WELLS      =           0.0000

               TOTAL OUT =   794445888.0000                 TOTAL OUT =          84.3762

                IN - OUT =       -2112.0000                  IN - OUT =       1.3504E-03

     PERCENT DISCREPANCY =          -0.00         PERCENT DISCREPANCY =           0.00






         TIME SUMMARY AT END OF TIME STEP   10 IN STRESS PERIOD    7
                    SECONDS     MINUTES      HOURS       DAYS        YEARS
                    -----------------------------------------------------------
   TIME STEP LENGTH  87667.      1461.1      24.352      1.0147     2.77799E-03
 STRESS PERIOD TIME 8.76667E+05  14611.      243.52      10.147     2.77799E-02
         TOTAL TIME 1.41131E+07 2.35218E+05  3920.3      163.35     0.44722    
1
 
 SOLVING FOR HEAD 
                                                   Max.-Head-Change                         Max.-Flux-Residual
  Residual-Control   Outer-Iter.   Inner-Iter.     Column Row Layer    Maximum-Head-Change  Column Row Layer    Maximum-Flux-Residual          L2-NORM 
          0                 1           2             4    8     1       0.2126470003E+00       4    8    1         0.1133962048E+02      0.2500352579E+02
          0                 2           2             5    8     1       0.7721999359E-01       5    8    1         0.4230753346E+01      0.5808141726E+01
          0                 3           2             4    7     1      -0.6838962237E-01       4    7    1        -0.3688380172E+01      0.7966225036E+01
          0                 4           2             4    7     1       0.7229061167E-01       4    6    1         0.4003256888E+01      0.8915251154E+01
          0                 5           2             4    8     1       0.2367521918E-01       5    8    1         0.1345147080E+01      0.1926388104E+01
          0                 6           2             4    8     1       0.1150985821E-01       4    8    1         0.6506622230E+00      0.8986559190E+00
          0                 7           2             4    8     1       0.5591273502E-02       4    8    1         0.3163068985E+00      0.4267194094E+00
          0                 8           2             4    8     1       0.2714202863E-02       4    8    1         0.1536441033E+00      0.2028641856E+00
          0                 9           2             4    8     1       0.1316704466E-02       4    8    1         0.7457880943E-01      0.9654968353E-01
          0                10           2             4    8     1       0.6383666746E-03       4    8    1         0.3617688516E-01      0.4599815635E-01
                                                   Max.-Head-Change                         Max.-Flux-Residual
  Residual-Control   Outer-Iter.   Inner-Iter.     Column Row Layer    Maximum-Head-Change  Column Row Layer    Maximum-Flux-Residual          L2-NORM 
          0                11           2             4    8     1       0.3093196646E-03       4    8    1         0.1753817512E-01      0.2193495204E-01
          0                12           2             4    8     1       0.1498021657E-03       4    8    1         0.8497565795E-02      0.1046896852E-01
          0                13           1             4    8     1       0.7251338460E-04       4    8    1         0.4115089308E-02      0.5000439676E-02

    ------------------------------------------------
       NWT REQUIRED           13 OUTER ITERATIONS 
       AND A TOTAL OF         25 INNER ITERATIONS.
    ------------------------------------------------

 NO OUTPUT CONTROL FOR STRESS PERIOD    7   TIME STEP   11
 
 SOLVING FOR HEAD 
                                                   Max.-Head-Change                         Max.-Flux-Residual
  Residual-Control   Outer-Iter.   Inner-Iter.     Column Row Layer    Maximum-Head-Change  Column Row Layer    Maximum-Flux-Residual          L2-NORM 
          0                 1           2             4    8     1       0.5418640958E+00       4    8    1         0.2923310876E+02      0.3597700360E+02
          0                 2           2             4    8     1       0.2409592334E+00       4    8    1         0.1303107418E+02      0.1405568752E+02
          0                 3           2             4    6     1      -0.6776838950E-01       4    6    1        -0.3689751531E+01      0.7423297093E+01
          0                 4           2             4    8     1       0.8618931472E-01       4    8    1         0.4584944871E+01      0.9180066879E+01
          0                 5           2             4    8     1       0.3814352001E-01       4    8    1         0.2052096621E+01      0.2787071864E+01
          0                 6           2             4    8     1       0.1688834660E-01       4    8    1         0.9072636692E+00      0.1256184905E+01
          0                 7           2             4    8     1       0.7480959235E-02       4    8    1         0.4017177206E+00      0.5707941661E+00
          0                 8           2             4    8     1       0.3315381732E-02       4    8    1         0.1779542888E+00      0.2597293764E+00
          0                 9           2             4    8     1       0.1470003384E-02       4    8    1         0.7886819546E-01      0.1183499403E+00
          0                10           2             4    8     1       0.6520999278E-03       4    8    1         0.3497067351E-01      0.5400121996E-01
                                                   Max.-Head-Change                         Max.-Flux-Residual
  Residual-Control   Outer-Iter.   Inner-Iter.     Column Row Layer    Maximum-Head-Change  Column Row Layer    Maximum-Flux-Residual          L2-NORM 
          0                11           2             4    8     1       0.2894166453E-03       4    8    1         0.1551376698E-01      0.2467225886E-01
          0                12           2             4    8     1       0.1285135544E-03       5    7    1         0.6914874010E-02      0.1128661950E-01
          0                13           1             4    8     1       0.5709432977E-04       5    7    1         0.3251155668E-02      0.5169483136E-02

    ------------------------------------------------
       NWT REQUIRED           13 OUTER ITERATIONS 
       AND A TOTAL OF         25 INNER ITERATIONS.
    ------------------------------------------------

 NO OUTPUT CONTROL FOR STRESS PERIOD    7   TIME STEP   12
 
 SOLVING FOR HEAD 
                                                   Max.-Head-Change                         Max.-Flux-Residual
  Residual-Control   Outer-Iter.   Inner-Iter.     Column Row Layer    Maximum-Head-Change  Column Row Layer    Maximum-Flux-Residual          L2-NORM 
          0                 1           2             5    7     1       0.5024286121E+00       5    7    1         0.2740625114E+02      0.4087374822E+02
          0                 2           2             5    7     1       0.2161118822E+00       5    7    1         0.1185247513E+02      0.1662137929E+02
          0                 3           2             4    6     1      -0.6741040153E-01       4    6    1        -0.3689671632E+01      0.6518667297E+01
          0                 4           2             5    7     1       0.7938560673E-01       5    7    1         0.4235495658E+01      0.9022585461E+01
          0                 5           2             5    7     1       0.3438251742E-01       5    7    1         0.1861191825E+01      0.3180584068E+01
          0                 6           2             5    7     1       0.1491867564E-01       5    7    1         0.8050484466E+00      0.1414529353E+01
          0                 7           2             4    8     1       0.6525744562E-02       4    8    1         0.3498386492E+00      0.6329271180E+00
          0                 8           2             4    8     1       0.2861201435E-02       4    8    1         0.1532891564E+00      0.2838091630E+00
          0                 9           2             4    8     1       0.1255350867E-02       4    8    1         0.6721339409E-01      0.1275168321E+00
          0                10           2             4    8     1       0.5511591352E-03       4    8    1         0.2949159155E-01      0.5740010004E-01
                                                   Max.-Head-Change                         Max.-Flux-Residual
  Residual-Control   Outer-Iter.   Inner-Iter.     Column Row Layer    Maximum-Head-Change  Column Row Layer    Maximum-Flux-Residual          L2-NORM 
          0                11           2             4    8     1       0.2421479150E-03       5    6    1         0.1375151562E-01      0.2588211307E-01
          0                12           2             5    6     1       0.1118447529E-03       5    6    1         0.6433485064E-02      0.1168879763E-01
          0                13           1             5    6     1       0.5222689887E-04       5    6    1         0.3006543964E-02      0.5286493886E-02

    ------------------------------------------------
       NWT REQUIRED           13 OUTER ITERATIONS 
       AND A TOTAL OF         25 INNER ITERATIONS.
    ------------------------------------------------

 NO OUTPUT CONTROL FOR STRESS PERIOD    7   TIME STEP   13
 
 SOLVING FOR HEAD 
                                                   Max.-Head-Change                         Max.-Flux-Residual
  Residual-Control   Outer-Iter.   Inner-Iter.     Column Row Layer    Maximum-Head-Change  Column Row Layer    Maximum-Flux-Residual          L2-NORM 
          0                 1           2             5    6     1       0.4404036528E+00       5    6    1         0.2387633200E+02      0.4238295727E+02
          0                 2           2             5    6     1       0.1900082288E+00       5    6    1         0.1033660255E+02      0.1729187872E+02
          0                 3           2             4    6     1      -0.6647605007E-01       4    6    1        -0.3686475220E+01      0.5941562028E+01
          0                 4           2             5    6     1       0.7513670233E-01       5    6    1         0.4020405296E+01      0.9217876717E+01
          0                 5           2             5    6     1       0.3242654331E-01       5    6    1         0.1764914441E+01      0.3212802584E+01
          0                 6           2             5    6     1       0.1399351795E-01       5    6    1         0.7605071710E+00      0.1391557814E+01
          0                 7           2             5    6     1       0.6038645394E-02       5    6    1         0.3281985570E+00      0.6053995127E+00
          0                 8           2             5    6     1       0.2605819489E-02       5    6    1         0.1416274693E+00      0.2635635324E+00
          0                 9           2             5    6     1       0.1124467644E-02       5    6    1         0.6111546908E-01      0.1148207635E+00
          0                10           2             5    6     1       0.4852357942E-03       5    6    1         0.2637264121E-01      0.5005341182E-01
                                                   Max.-Head-Change                         Max.-Flux-Residual
  Residual-Control   Outer-Iter.   Inner-Iter.     Column Row Layer    Maximum-Head-Change  Column Row Layer    Maximum-Flux-Residual          L2-NORM 
          0                11           2             5    6     1       0.2093953707E-03       5    6    1         0.1138047306E-01      0.2183290055E-01
          0                12           1             5    6     1       0.9036376223E-04       5    6    1         0.4911072347E-02      0.9528845351E-02

    ------------------------------------------------
       NWT REQUIRED           12 OUTER ITERATIONS 
       AND A TOTAL OF         23 INNER ITERATIONS.
    ------------------------------------------------

 NO OUTPUT CONTROL FOR STRESS PERIOD    7   TIME STEP   14
 
 SOLVING FOR HEAD 
                                                   Max.-Head-Change                         Max.-Flux-Residual
  Residual-Control   Outer-Iter.   Inner-Iter.     Column Row Layer    Maximum-Head-Change  Column Row Layer    Maximum-Flux-Residual          L2-NORM 
          0                 1           2             5    6     1       0.3753198054E+00       5    6    1         0.2030575328E+02      0.3752281164E+02
          0                 2           2             5    6     1       0.1595619460E+00       5    6    1         0.8681523853E+01      0.1475474685E+02
          0                 3           2             4    6     1      -0.6665415968E-01       4    6    1        -0.3684264410E+01      0.5938077648E+01
          0                 4           2             4    7     1       0.7233467784E-01       4    6    1         0.4002966697E+01      0.8834126319E+01
          0                 5           2             5    6     1       0.2978826927E-01       5    6    1         0.1713412691E+01      0.3132213066E+01
          0                 6           2             5    6     1       0.1358379411E-01       5    6    1         0.7801508305E+00      0.1415470537E+01
          0                 7           2             5    6     1       0.6193868353E-02       5    6    1         0.3557577253E+00      0.6423200198E+00
          0                 8           2             5    6     1       0.2824018106E-02       5    6    1         0.1622124499E+00      0.2914990806E+00
          0                 9           2             5    6     1       0.1287470867E-02       5    6    1         0.7395680741E-01      0.1322980518E+00
          0                10           2             5    6     1       0.5869102441E-03       5    6    1         0.3371603274E-01      0.6004832245E-01
                                                   Max.-Head-Change                         Max.-Flux-Residual
  Residual-Control   Outer-Iter.   Inner-Iter.     Column Row Layer    Maximum-Head-Change  Column Row Layer    Maximum-Flux-Residual          L2-NORM 
          0                11           2             5    6     1       0.2675286721E-03       5    6    1         0.1536947701E-01      0.2725672481E-01
          0                12           2             5    6     1       0.1219364222E-03       5    6    1         0.7005611754E-02      0.1237280702E-01
          0                13           1             5    6     1       0.5557262423E-04       5    6    1         0.3192989669E-02      0.5687710889E-02

    ------------------------------------------------
       NWT REQUIRED           13 OUTER ITERATIONS 
       AND A TOTAL OF         25 INNER ITERATIONS.
    ------------------------------------------------

 OUTPUT CONTROL FOR STRESS PERIOD    7   TIME STEP   15
    PRINT BUDGET
    SAVE BUDGET
 UBDSV1 SAVING "         STORAGE" ON UNIT 102 AT TIME STEP 15, STRESS PERIOD   7
 UBDSV2 SAVING "   CONSTANT HEAD" ON UNIT 102 AT TIME STEP 15, STRESS PERIOD   7
 UBDSV1 SAVING "FLOW RIGHT FACE " ON UNIT 102 AT TIME STEP 15, STRESS PERIOD   7
 UBDSV1 SAVING "FLOW FRONT FACE " ON UNIT 102 AT TIME STEP 15, STRESS PERIOD   7

  HEAD DEP BOUNDS   PERIOD    7   STEP    15
 BOUNDARY      1   LAYER   1   ROW    13   COL     1   RATE   -0.290365    
 BOUNDARY      2   LAYER   1   ROW    14   COL     9   RATE    0.285776    



 STREAM LISTING     PERIOD      7   STEP       15

 LAYER ROW COL. STREAM  RCH.  FLOW INTO     FLOW TO   FLOW OUT OF   OVRLND.     DIRECT     STREAM       STREAM     STREAM     STREAM   STREAMBED  STREAMBED
                SEG.NO.  NO.  STRM. RCH.    AQUIFER    STRM. RCH.    RUNOFF     PRECIP       ET          HEAD       DEPTH      WIDTH   CONDCTNC.   GRADIENT

   1    1    1     1     1    6.2250E+01  3.7978E-01   6.1870E+01  0.000E+00  0.000E+00  0.000E+00  1.09460E+03  1.553E+00  1.854E+01  8.342E-02  1.518E+00
   1    2    2     1     2    6.1870E+01  5.8817E-01   6.1282E+01  0.000E+00  0.000E+00  0.000E+00  1.08961E+03  1.547E+00  1.848E+01  1.294E-01  1.516E+00
   1    3    3     1     3    6.1282E+01  5.0163E-01   6.0781E+01  0.000E+00  0.000E+00  0.000E+00  1.08396E+03  1.540E+00  1.841E+01  1.105E-01  1.513E+00
   1    3    4     1     4    6.0781E+01  4.6194E-01   6.0319E+01  0.000E+00  0.000E+00  0.000E+00  1.07894E+03  1.534E+00  1.836E+01  1.019E-01  1.511E+00
   1    4    5     2     1    5.8319E+01  3.9026E-01   5.7928E+01  0.000E+00  0.000E+00  0.000E+00  1.07394E+03  2.003E+00  1.200E+01  7.800E-02  1.668E+00
   1    5    6     2     2    5.7928E+01  2.9977E-01   5.7629E+01  0.000E+00  0.000E+00  0.000E+00  1.06851E+03  1.996E+00  1.200E+01  6.000E-02  1.665E+00
   1    6    6     2     3    5.7629E+01  2.9940E-01   5.7329E+01  0.000E+00  0.000E+00  0.000E+00  1.06378E+03  1.990E+00  1.200E+01  6.000E-02  1.663E+00
   1    7    6     2     4    5.7329E+01  2.9903E-01   5.7030E+01  0.000E+00  0.000E+00  0.000E+00  1.05906E+03  1.984E+00  1.200E+01  6.000E-02  1.661E+00
   1    8    6     2     5    5.7030E+01  2.9865E-01   5.6732E+01  0.000E+00  0.000E+00  0.000E+00  1.05434E+03  1.978E+00  1.200E+01  6.000E-02  1.659E+00
   1    3    5     3     1    2.0000E+00  2.8252E-01   1.7175E+00  0.000E+00  0.000E+00  0.000E+00  1.07555E+03  1.909E+00  9.636E+00  7.227E-02  1.955E+00
   1    3    6     3     2    1.7175E+00  2.4905E-01   1.4684E+00  0.000E+00  0.000E+00  0.000E+00  1.07264E+03  1.727E+00  8.909E+00  6.682E-02  1.864E+00
   1    3    7     3     3    1.4684E+00  1.9718E-01   1.2712E+00  0.000E+00  0.000E+00  0.000E+00  1.06987E+03  1.555E+00  8.218E+00  5.547E-02  1.777E+00
   1    4    8     3     4    1.2712E+00  2.2567E-01   1.0456E+00  0.000E+00  0.000E+00  0.000E+00  1.06682E+03  1.364E+00  7.455E+00  6.709E-02  1.682E+00
   1    5    8     3     5    1.0456E+00  1.5790E-01   8.8768E-01  0.000E+00  0.000E+00  0.000E+00  1.06362E+03  1.164E+00  6.655E+00  4.991E-02  1.582E+00
   1    6    8     3     6    8.8768E-01  5.5980E-02   8.3170E-01  0.000E+00  0.000E+00  0.000E+00  1.06158E+03  1.036E+00  6.145E+00  1.844E-02  1.518E+00
   1    5   10     4     1    1.0000E+01  9.0919E-02   9.9091E+00  0.000E+00  0.000E+00  0.000E+00  1.07836E+03  6.368E-01  1.000E+01  2.500E-02  1.212E+00
   1    5    9     4     2    9.9091E+00  1.8158E-01   9.7275E+00  0.000E+00  0.000E+00  0.000E+00  1.07154E+03  6.315E-01  1.000E+01  5.000E-02  1.211E+00
   1    6    8     4     3    9.7275E+00  1.2689E-01   9.6006E+00  0.000E+00  0.000E+00  0.000E+00  1.06381E+03  6.256E-01  1.000E+01  3.500E-02  1.209E+00
   1    6    8     5     1    1.0432E+01  2.2686E-01   1.0205E+01  0.000E+00  0.000E+00  0.000E+00  1.05868E+03  6.790E-01  1.542E+01  6.166E-02  1.226E+00
   1    7    7     5     2    1.0205E+01  2.7894E-01   9.9265E+00  0.000E+00  0.000E+00  0.000E+00  1.05417E+03  6.732E-01  1.519E+01  7.594E-02  1.224E+00
   1    8    7     5     3    9.9265E+00  1.9221E-01   9.7343E+00  0.000E+00  0.000E+00  0.000E+00  1.04992E+03  6.676E-01  1.497E+01  5.241E-02  1.223E+00
   1    8    6     5     4    9.7343E+00  1.3577E-01   9.5985E+00  0.000E+00  0.000E+00  0.000E+00  1.04691E+03  6.637E-01  1.482E+01  3.706E-02  1.221E+00
   1    9    6     6     1    4.3860E+01  2.8245E-01   4.3578E+01  0.000E+00  0.000E+00  0.000E+00  1.04443E+03  1.708E+00  1.200E+01  6.000E-02  1.569E+00
   1   10    7     6     2    4.3578E+01  2.8206E-01   4.3296E+01  0.000E+00  0.000E+00  0.000E+00  1.03988E+03  1.701E+00  1.200E+01  6.000E-02  1.567E+00
   1   11    7     6     3    4.3296E+01  2.8166E-01   4.3014E+01  0.000E+00  0.000E+00  0.000E+00  1.03533E+03  1.694E+00  1.200E+01  6.000E-02  1.565E+00
   1   12    7     6     4    4.3014E+01  2.8126E-01   4.2733E+01  0.000E+00  0.000E+00  0.000E+00  1.03078E+03  1.688E+00  1.200E+01  6.000E-02  1.563E+00
   1   13    7     6     5    4.2733E+01  1.1896E-02   4.2721E+01  0.000E+00  0.000E+00  0.000E+00  1.02759E+03  1.684E+00  1.200E+01  2.400E-02  1.652E-01
   1   14    9     7     1    1.5000E+02  1.3361E+00   1.4866E+02  0.000E+00  0.000E+00  0.000E+00  1.03987E+03  2.288E+00  5.529E+01  5.593E-01  7.963E-01
   1   13    8     7     2    1.4866E+02  1.8291E+00   1.4683E+02  0.000E+00  0.000E+00  0.000E+00  1.03478E+03  2.279E+00  5.526E+01  6.148E-01  9.917E-01
   1   13    7     7     3    1.4683E+02  1.4477E+00   1.4539E+02  0.000E+00  0.000E+00  0.000E+00  1.02969E+03  2.271E+00  5.522E+01  5.585E-01  8.641E-01
   1   13    6     8     1    1.8811E+02  9.6287E-01   1.8715E+02  0.000E+00  0.000E+00  0.000E+00  1.02494E+03  3.063E+00  4.442E+01  4.527E-01  7.091E-01
   1   13    5     8     2    1.8715E+02  1.8314E-01   1.8696E+02  0.000E+00  0.000E+00  0.000E+00  1.01868E+03  3.060E+00  4.437E+01  4.521E-01  1.350E-01
   1   13    4     8     3    1.8696E+02 -2.3892E+00   1.8935E+02  0.000E+00  0.000E+00  0.000E+00  1.01244E+03  3.067E+00  4.447E+01  4.531E+00 -1.758E-01
   1   13    3     8     4    1.8935E+02 -3.5354E+00   1.9289E+02  0.000E+00  0.000E+00  0.000E+00  1.00621E+03  3.084E+00  4.472E+01  4.558E+00 -2.586E-01
   1   13    2     8     5    1.9289E+02 -2.3656E+00   1.9525E+02  0.000E+00  0.000E+00  0.000E+00  9.99977E+02  3.102E+00  4.499E+01  4.584E+00 -1.720E-01
   1   13    1     8     6    1.9525E+02 -1.7985E+00   1.9705E+02  0.000E+00  0.000E+00  0.000E+00  9.94990E+02  3.115E+00  4.517E+01  2.762E+00 -2.171E-01
   1    8    6     9     1    2.2470E+01  0.0000E+00   2.2470E+01  0.000E+00  0.000E+00  0.000E+00  1.08243E+03  3.683E+00  4.000E+00  0.000E+00  2.228E+00
   1    8    5     9     2    2.2470E+01  0.0000E+00   2.2470E+01  0.000E+00  0.000E+00  0.000E+00  1.08193E+03  3.683E+00  4.000E+00  0.000E+00  2.228E+00



 UBDSV3 SAVING "           GW ET" ON UNIT  61 AT TIME STEP 15, STRESS PERIOD   7
 UBDSV3 SAVING "    UZF RECHARGE" ON UNIT  61 AT TIME STEP 15, STRESS PERIOD   7
 UBDSV3 SAVING " SURFACE LEAKAGE" ON UNIT  61 AT TIME STEP 15, STRESS PERIOD   7
 UBDSV3 SAVING "       HORT+DUNN" ON UNIT  61 AT TIME STEP 15, STRESS PERIOD   7
 UBDSV3 SAVING "  STORAGE CHANGE" ON UNIT  61 AT TIME STEP 15, STRESS PERIOD   7


UNSATURATED ZONE PACKAGE VOLUMETRIC BUDGET FOR  TIME STEP    15 STRESS PERIOD    7
  ------------------------------------------------------------------------------



     CUMULATIVE VOLUMES      L**3       RATES FOR THIS TIME STEP      L**3/T
     ------------------                 ------------------------

           IN:                                      IN:
           ---                                      ---
        INFILTRATION =   800664703.1328          INFILTRATION =          23.3179

          OUT:                                     OUT:
          ----                                     ----
              UZF ET =    73385247.0626                UZF ET =          23.3175
        UZF RECHARGE =    67025860.5000          UZF RECHARGE =         110.6770

            IN - OUT =   660253595.5702              IN - OUT =        -110.6765

          STORAGE:                                 STORAGE:
          --------                                 --------
      STORAGE CHANGE =   660255714.4772        STORAGE CHANGE =        -110.6765

 PERCENT DISCREPANCY IS DIFFERENCE BETWEEN IN-OUT MINUS CHANGE IN STORAGE
 DIVIDED BY THE AVERAGE OF IN AND OUT TIMES 100

 PERCENT DISCREPANCY =          -0.00     PERCENT DISCREPANCY =           0.00






 

        AG WELLS          PERIOD    7   STEP  15
 AG WELL      1   LAYER   1   ROW     6   COL     4   RATE     0.00000    
 AG WELL      2   LAYER   1   ROW     6   COL     5   RATE     0.00000    
 AG WELL      3   LAYER   1   ROW     7   COL     4   RATE     0.00000    
 AG WELL      4   LAYER   1   ROW     7   COL     5   RATE     0.00000    
 AG WELL      5   LAYER   1   ROW     8   COL     4   RATE     0.00000    
 AG WELL      6   LAYER   1   ROW     8   COL     5   RATE     0.00000    
 
 

   DIVERSION SEGMENTS     PERIOD    7   STEP  15
 SEGMENT      9   RATE     22.4700    
 
 

        SW IRRIGATION     PERIOD    7   STEP  15
 SEGMENT      9   ROW     6   COL     4   RATE     3.74507    
 SEGMENT      9   ROW     6   COL     5   RATE     3.74507    
 SEGMENT      9   ROW     7   COL     4   RATE     3.74507    
 SEGMENT      9   ROW     7   COL     5   RATE     3.74507    
 SEGMENT      9   ROW     8   COL     4   RATE     3.74507    
 SEGMENT      9   ROW     8   COL     5   RATE     3.74507    
 
 

        GW IRRIGATION     PERIOD    7   STEP  15
 AG WELL      1   ROW     6   COL     4   RATE     0.00000    
 AG WELL      2   ROW     6   COL     5   RATE     0.00000    
 AG WELL      3   ROW     7   COL     4   RATE     0.00000    
 AG WELL      4   ROW     7   COL     5   RATE     0.00000    
 AG WELL      5   ROW     8   COL     4   RATE     0.00000    
 AG WELL      6   ROW     8   COL     5   RATE     0.00000    
 
1
  VOLUMETRIC BUDGET FOR AGRICULTURAL FIELDS AT  END OF TIME STEP   15, STRESS PERIOD   7
  ------------------------------------------------------------------------------

     CUMULATIVE VOLUMES      L**3       RATES FOR THIS TIME STEP      L**3/T
     ------------------                 ------------------------

           IN:                                      IN:
           ---                                      ---
           AG WELLS      =   537334336.0000             AG WELLS      =           0.0000
      DIVERSION SEGMENTS =   250992880.0000        DIVERSION SEGMENTS =          22.4700
           GW IRRIGATION =           0.0000             GW IRRIGATION =           0.0000
           SW IRRIGATION =           0.0000             SW IRRIGATION =           0.0000
        SYSTEM LOSSES GW =           0.0000          SYSTEM LOSSES GW =           0.0000
        SYSTEM LOSSES SW =           0.0000          SYSTEM LOSSES SW =           0.0000

                TOTAL IN =   788327232.0000                  TOTAL IN =          22.4700

          OUT:                                     OUT:
          ----                                     ----
           AG WELLS      =           0.0000             AG WELLS      =           0.0000
      DIVERSION SEGMENTS =           0.0000        DIVERSION SEGMENTS =           0.0000
           GW IRRIGATION =   537334336.0000             GW IRRIGATION =           0.0000
           SW IRRIGATION =   250997920.0000             SW IRRIGATION =          22.4704
        SYSTEM LOSSES GW =           0.0000          SYSTEM LOSSES GW =           0.0000
        SYSTEM LOSSES SW =           0.0000          SYSTEM LOSSES SW =           0.0000

               TOTAL OUT =   788332288.0000                 TOTAL OUT =          22.4704

                IN - OUT =       -5056.0000                  IN - OUT =      -4.4823E-04

     PERCENT DISCREPANCY =          -0.00         PERCENT DISCREPANCY =          -0.00



1
  VOLUMETRIC BUDGET FOR ENTIRE MODEL AT END OF TIME STEP   15, STRESS PERIOD   7
  ------------------------------------------------------------------------------

     CUMULATIVE VOLUMES      L**3       RATES FOR THIS TIME STEP      L**3/T
     ------------------                 ------------------------

           IN:                                      IN:
           ---                                      ---
             STORAGE     =   608766080.0000               STORAGE     =          29.4721
       CONSTANT HEAD     =           0.0000         CONSTANT HEAD     =           0.0000
     HEAD DEP BOUNDS     =     4157587.5000       HEAD DEP BOUNDS     =           0.2858
      STREAM LEAKAGE     =   175432240.0000        STREAM LEAKAGE     =          12.8183
        UZF RECHARGE     =    67025860.0000          UZF RECHARGE     =         110.6770
               GW ET     =           0.0000                 GW ET     =           0.0000
     SURFACE LEAKAGE     =           0.0000       SURFACE LEAKAGE     =           0.0000
           AG WELLS      =           0.0000             AG WELLS      =           0.0000

                TOTAL IN =   855381760.0000                  TOTAL IN =         153.2532

          OUT:                                     OUT:
          ----                                     ----
             STORAGE     =   156657120.0000               STORAGE     =         142.8692
       CONSTANT HEAD     =           0.0000         CONSTANT HEAD     =           0.0000
     HEAD DEP BOUNDS     =     4220982.5000       HEAD DEP BOUNDS     =           0.2904
      STREAM LEAKAGE     =   157134608.0000        STREAM LEAKAGE     =          10.0887
        UZF RECHARGE     =           0.0000          UZF RECHARGE     =           0.0000
               GW ET     =       34549.5586                 GW ET     =           0.0000
     SURFACE LEAKAGE     =           0.0000       SURFACE LEAKAGE     =           0.0000
           AG WELLS      =   537334336.0000             AG WELLS      =           0.0000

               TOTAL OUT =   855381632.0000                 TOTAL OUT =         153.2482

                IN - OUT =         128.0000                  IN - OUT =       4.9438E-03

     PERCENT DISCREPANCY =           0.00         PERCENT DISCREPANCY =           0.00






         TIME SUMMARY AT END OF TIME STEP   15 IN STRESS PERIOD    7
                    SECONDS     MINUTES      HOURS       DAYS        YEARS
                    -----------------------------------------------------------
   TIME STEP LENGTH  87667.      1461.1      24.352      1.0147     2.77799E-03
 STRESS PERIOD TIME 1.31500E+06  21917.      365.28      15.220     4.16698E-02
         TOTAL TIME 1.45514E+07 2.42524E+05  4042.1      168.42     0.46111    
1
 
 SOLVING FOR HEAD 
                                                   Max.-Head-Change                         Max.-Flux-Residual
  Residual-Control   Outer-Iter.   Inner-Iter.     Column Row Layer    Maximum-Head-Change  Column Row Layer    Maximum-Flux-Residual          L2-NORM 
          0                 1           2             5    7     1       0.3258834878E+00       5    7    1         0.1747141829E+02      0.3365095095E+02
          0                 2           2             5    7     1       0.1368142333E+00       5    7    1         0.7423228594E+01      0.1274350049E+02
          0                 3           2             4    6     1      -0.6680566769E-01       4    6    1        -0.3682729831E+01      0.6100105579E+01
          0                 4           2             4    7     1       0.7222929435E-01       4    6    1         0.4002857385E+01      0.8547130317E+01
          0                 5           2             5    7     1       0.2783127585E-01       5    7    1         0.1584613293E+01      0.2933081148E+01
          0                 6           2             5    7     1       0.1263459248E-01       5    7    1         0.7184004090E+00      0.1312758676E+01
          0                 7           2             5    7     1       0.5733367255E-02       5    7    1         0.3261212504E+00      0.5901565017E+00
          0                 8           2             5    7     1       0.2600693813E-02       5    7    1         0.1479805477E+00      0.2653280286E+00
          0                 9           2             5    7     1       0.1179261903E-02       5    7    1         0.6712150151E-01      0.1192977809E+00
          0                10           2             5    7     1       0.5345430742E-03       5    7    1         0.3043414211E-01      0.5364293071E-01
                                                   Max.-Head-Change                         Max.-Flux-Residual
  Residual-Control   Outer-Iter.   Inner-Iter.     Column Row Layer    Maximum-Head-Change  Column Row Layer    Maximum-Flux-Residual          L2-NORM 
          0                11           2             5    7     1       0.2422231229E-03       5    7    1         0.1379471153E-01      0.2412242260E-01
          0                12           2             5    7     1       0.1097279623E-03       5    7    1         0.6250652473E-02      0.1084814058E-01
          0                13           1             5    7     1       0.4969312202E-04       5    7    1         0.2831441416E-02      0.4878805852E-02

    ------------------------------------------------
       NWT REQUIRED           13 OUTER ITERATIONS 
       AND A TOTAL OF         25 INNER ITERATIONS.
    ------------------------------------------------

 NO OUTPUT CONTROL FOR STRESS PERIOD    7   TIME STEP   16
 
 SOLVING FOR HEAD 
                                                   Max.-Head-Change                         Max.-Flux-Residual
  Residual-Control   Outer-Iter.   Inner-Iter.     Column Row Layer    Maximum-Head-Change  Column Row Layer    Maximum-Flux-Residual          L2-NORM 
          0                 1           2             5    6     1       0.2813702378E+00       5    6    1         0.1516606170E+02      0.3031059075E+02
          0                 2           2             5    6     1       0.1152181959E+00       5    6    1         0.6274190094E+01      0.1094080318E+02
          0                 3           2             4    7     1      -0.6695012365E-01       4    6    1        -0.3681703150E+01      0.6382991739E+01
          0                 4           2             4    7     1       0.7212898254E-01       4    6    1         0.4002783961E+01      0.8305498011E+01
          0                 5           2             5    7     1       0.2556696009E-01       5    7    1         0.1455030851E+01      0.2748930102E+01
          0                 6           2             5    7     1       0.1141009054E-01       5    7    1         0.6484532539E+00      0.1212626490E+01
          0                 7           2             5    7     1       0.5089583035E-02       5    7    1         0.2893807646E+00      0.5377246912E+00
          0                 8           2             5    7     1       0.2269214404E-02       5    7    1         0.1290732543E+00      0.2384850320E+00
          0                 9           2             5    7     1       0.1011311014E-02       5    7    1         0.5754453373E-01      0.1057856880E+00
          0                10           2             4    8     1       0.4519234572E-03       4    8    1         0.2565041754E-01      0.4692980140E-01
                                                   Max.-Head-Change                         Max.-Flux-Residual
  Residual-Control   Outer-Iter.   Inner-Iter.     Column Row Layer    Maximum-Head-Change  Column Row Layer    Maximum-Flux-Residual          L2-NORM 
          0                11           2             4    8     1       0.2019007518E-03       4    8    1         0.1146211116E-01      0.2082182742E-01
          0                12           1             4    8     1       0.9017841609E-04       4    8    1         0.5120579272E-02      0.9239120382E-02

    ------------------------------------------------
       NWT REQUIRED           12 OUTER ITERATIONS 
       AND A TOTAL OF         23 INNER ITERATIONS.
    ------------------------------------------------

 NO OUTPUT CONTROL FOR STRESS PERIOD    7   TIME STEP   17
 
 SOLVING FOR HEAD 
                                                   Max.-Head-Change                         Max.-Flux-Residual
  Residual-Control   Outer-Iter.   Inner-Iter.     Column Row Layer    Maximum-Head-Change  Column Row Layer    Maximum-Flux-Residual          L2-NORM 
          0                 1           2             5    7     1       0.2542083265E+00       5    7    1         0.1356384198E+02      0.2801478620E+02
          0                 2           2             5    7     1       0.1024873929E+00       5    7    1         0.5554841927E+01      0.9581418360E+01
          0                 3           2             4    7     1      -0.7180245866E-01       4    7    1        -0.3919129264E+01      0.6776892463E+01
          0                 4           2             4    6     1       0.7120036890E-01       4    6    1         0.4002736293E+01      0.7961922426E+01
          0                 5           2             5    6     1       0.2418728188E-01       5    6    1         0.1391614380E+01      0.2612348162E+01
          0                 6           2             5    6     1       0.1067145008E-01       5    6    1         0.6128531181E+00      0.1143380521E+01
          0                 7           2             5    6     1       0.4707801514E-02       5    6    1         0.2703926985E+00      0.5020167940E+00
          0                 8           2             5    6     1       0.2076707090E-02       5    6    1         0.1192826995E+00      0.2205478338E+00
          0                 9           2             5    6     1       0.9160069268E-03       5    6    1         0.5261651970E-01      0.9694956079E-01
          0                10           2             5    6     1       0.4040104073E-03       5    6    1         0.2320777283E-01      0.4264274107E-01
                                                   Max.-Head-Change                         Max.-Flux-Residual
  Residual-Control   Outer-Iter.   Inner-Iter.     Column Row Layer    Maximum-Head-Change  Column Row Layer    Maximum-Flux-Residual          L2-NORM 
          0                11           2             5    6     1       0.1781805765E-03       5    6    1         0.1023564938E-01      0.1876712705E-01
          0                12           1             5    6     1       0.7857881254E-04       5    6    1         0.4514104988E-02      0.8264197701E-02

    ------------------------------------------------
       NWT REQUIRED           12 OUTER ITERATIONS 
       AND A TOTAL OF         23 INNER ITERATIONS.
    ------------------------------------------------

 NO OUTPUT CONTROL FOR STRESS PERIOD    7   TIME STEP   18
 
 SOLVING FOR HEAD 
                                                   Max.-Head-Change                         Max.-Flux-Residual
  Residual-Control   Outer-Iter.   Inner-Iter.     Column Row Layer    Maximum-Head-Change  Column Row Layer    Maximum-Flux-Residual          L2-NORM 
          0                 1           2             4    7     1       0.4387428964E+00       4    7    1         0.2343937813E+02      0.3259871818E+02
          0                 2           2             4    7     1       0.1824519823E+00       4    7    1         0.9804127410E+01      0.1290813845E+02
          0                 3           2             4    6     1      -0.6606199319E-01       4    6    1        -0.3676654663E+01      0.5787427900E+01
          0                 4           2             4    7     1       0.7297434374E-01       4    6    1         0.4002512931E+01      0.7972559528E+01
          0                 5           2             4    7     1       0.3060160383E-01       4    7    1         0.1629068465E+01      0.3016752627E+01
          0                 6           2             4    7     1       0.1285411089E-01       4    7    1         0.6822434419E+00      0.1305259251E+01
          0                 7           2             4    7     1       0.5408320655E-02       4    7    1         0.2866206908E+00      0.5667788862E+00
          0                 8           2             4    7     1       0.2279302849E-02       4    7    1         0.1206124729E+00      0.2463994039E+00
          0                 9           2             4    7     1       0.9621774636E-03       5    7    1         0.5346458705E-01      0.1072272793E+00
          0                10           2             5    7     1       0.4214231330E-03       5    7    1         0.2371913093E-01      0.4670327469E-01
                                                   Max.-Head-Change                         Max.-Flux-Residual
  Residual-Control   Outer-Iter.   Inner-Iter.     Column Row Layer    Maximum-Head-Change  Column Row Layer    Maximum-Flux-Residual          L2-NORM 
          0                11           2             5    7     1       0.1864511286E-03       5    7    1         0.1050641480E-01      0.2035684018E-01
          0                12           1             5    7     1       0.8238834303E-04       5    7    1         0.4647376566E-02      0.8878635082E-02

    ------------------------------------------------
       NWT REQUIRED           12 OUTER ITERATIONS 
       AND A TOTAL OF         23 INNER ITERATIONS.
    ------------------------------------------------

 NO OUTPUT CONTROL FOR STRESS PERIOD    7   TIME STEP   19
 
 SOLVING FOR HEAD 
                                                   Max.-Head-Change                         Max.-Flux-Residual
  Residual-Control   Outer-Iter.   Inner-Iter.     Column Row Layer    Maximum-Head-Change  Column Row Layer    Maximum-Flux-Residual          L2-NORM 
          0                 1           2             4    7     1       0.4088370421E+00       4    7    1         0.2182834573E+02      0.3057549318E+02
          0                 2           2             4    7     1       0.1661673516E+00       4    7    1         0.8932148905E+01      0.1174086208E+02
          0                 3           2             4    6     1      -0.6616762534E-01       4    6    1        -0.3674001916E+01      0.6039375443E+01
          0                 4           2             4    6     1       0.7113521863E-01       4    6    1         0.4002233898E+01      0.7783006864E+01
          0                 5           2             4    7     1       0.2908672457E-01       4    7    1         0.1638574321E+01      0.2942029600E+01
          0                 6           2             4    7     1       0.1286380743E-01       4    7    1         0.7238067268E+00      0.1280042677E+01
          0                 7           2             4    7     1       0.5687359110E-02       4    7    1         0.3200985588E+00      0.5584765533E+00
          0                 8           2             4    7     1       0.2513741356E-02       4    7    1         0.1415158457E+00      0.2437389809E+00
          0                 9           2             4    7     1       0.1110713171E-02       4    7    1         0.6254536842E-01      0.1064077482E+00
          0                10           2             4    7     1       0.4906337556E-03       4    7    1         0.2763483036E-01      0.4646619621E-01
                                                   Max.-Head-Change                         Max.-Flux-Residual
  Residual-Control   Outer-Iter.   Inner-Iter.     Column Row Layer    Maximum-Head-Change  Column Row Layer    Maximum-Flux-Residual          L2-NORM 
          0                11           2             4    7     1       0.2166656329E-03       4    7    1         0.1220654713E-01      0.2029576043E-01
          0                12           1             4    7     1       0.9565392192E-04       4    7    1         0.5390216317E-02      0.8866819451E-02

    ------------------------------------------------
       NWT REQUIRED           12 OUTER ITERATIONS 
       AND A TOTAL OF         23 INNER ITERATIONS.
    ------------------------------------------------

 NO OUTPUT CONTROL FOR STRESS PERIOD    7   TIME STEP   20
 
 SOLVING FOR HEAD 
                                                   Max.-Head-Change                         Max.-Flux-Residual
  Residual-Control   Outer-Iter.   Inner-Iter.     Column Row Layer    Maximum-Head-Change  Column Row Layer    Maximum-Flux-Residual          L2-NORM 
          0                 1           2             4    7     1       0.3656964928E+00       4    7    1         0.1950338752E+02      0.2785972286E+02
          0                 2           2             4    7     1       0.1486568150E+00       4    7    1         0.7991814634E+01      0.1048910451E+02
          0                 3           2             4    6     1      -0.6632420562E-01       4    6    1        -0.3672203799E+01      0.6271920158E+01
          0                 4           2             4    6     1       0.7106386234E-01       4    6    1         0.4002108102E+01      0.7618858306E+01
          0                 5           2             4    7     1       0.2784253516E-01       4    7    1         0.1567958425E+01      0.2845535602E+01
          0                 6           2             4    7     1       0.1231855272E-01       4    7    1         0.6928701897E+00      0.1232823666E+01
          0                 7           2             4    7     1       0.5448319875E-02       4    7    1         0.3065413366E+00      0.5358089095E+00
          0                 8           2             4    7     1       0.2408901555E-02       4    7    1         0.1355723644E+00      0.2330064958E+00
          0                 9           2             4    7     1       0.1064709154E-02       4    7    1         0.5993860649E-01      0.1013811643E+00
          0                10           2             4    7     1       0.4704362100E-03       4    7    1         0.2649096018E-01      0.4413248523E-01
                                                   Max.-Head-Change                         Max.-Flux-Residual
  Residual-Control   Outer-Iter.   Inner-Iter.     Column Row Layer    Maximum-Head-Change  Column Row Layer    Maximum-Flux-Residual          L2-NORM 
          0                11           2             4    7     1       0.2077930271E-03       4    7    1         0.1170433481E-01      0.1922001223E-01
          0                12           1             4    7     1       0.9175390960E-04       4    7    1         0.5169594054E-02      0.8373884088E-02

    ------------------------------------------------
       NWT REQUIRED           12 OUTER ITERATIONS 
       AND A TOTAL OF         23 INNER ITERATIONS.
    ------------------------------------------------

 NO OUTPUT CONTROL FOR STRESS PERIOD    7   TIME STEP   21
 
 SOLVING FOR HEAD 
                                                   Max.-Head-Change                         Max.-Flux-Residual
  Residual-Control   Outer-Iter.   Inner-Iter.     Column Row Layer    Maximum-Head-Change  Column Row Layer    Maximum-Flux-Residual          L2-NORM 
          0                 1           2             4    7     1       0.3447205697E+00       4    7    1         0.1836463422E+02      0.2668783664E+02
          0                 2           2             4    7     1       0.1366833412E+00       4    7    1         0.7345245032E+01      0.9755247791E+01
          0                 3           2             4    6     1      -0.6642180814E-01       4    6    1        -0.3670928624E+01      0.6453548076E+01
          0                 4           2             4    6     1       0.7101696667E-01       4    6    1         0.4002019160E+01      0.7524196308E+01
          0                 5           2             4    7     1       0.2625322843E-01       4    7    1         0.1477306715E+01      0.2753918974E+01
          0                 6           2             4    7     1       0.1137110083E-01       4    7    1         0.6388860359E+00      0.1174663631E+01
          0                 7           2             4    7     1       0.4924580684E-02       4    7    1         0.2767187532E+00      0.5027247119E+00
          0                 8           2             4    7     1       0.2132445830E-02       4    7    1         0.1198373335E+00      0.2152802603E+00
          0                 9           2             4    7     1       0.9232614515E-03       4    7    1         0.5189038845E-01      0.9223711958E-01
          0                10           2             4    7     1       0.3996742263E-03       4    7    1         0.2246566429E-01      0.3953720744E-01
                                                   Max.-Head-Change                         Max.-Flux-Residual
  Residual-Control   Outer-Iter.   Inner-Iter.     Column Row Layer    Maximum-Head-Change  Column Row Layer    Maximum-Flux-Residual          L2-NORM 
          0                11           2             4    7     1       0.1729895511E-03       4    7    1         0.9724920519E-02      0.1695430030E-01
          0                12           1             4    7     1       0.7486245635E-04       4    7    1         0.4209058096E-02      0.7272865936E-02

    ------------------------------------------------
       NWT REQUIRED           12 OUTER ITERATIONS 
       AND A TOTAL OF         23 INNER ITERATIONS.
    ------------------------------------------------

 NO OUTPUT CONTROL FOR STRESS PERIOD    7   TIME STEP   22
 
 SOLVING FOR HEAD 
                                                   Max.-Head-Change                         Max.-Flux-Residual
  Residual-Control   Outer-Iter.   Inner-Iter.     Column Row Layer    Maximum-Head-Change  Column Row Layer    Maximum-Flux-Residual          L2-NORM 
          0                 1           2             4    6     1       0.3491198290E+00       4    6    1         0.1871434019E+02      0.2887800432E+02
          0                 2           2             4    6     1       0.1423477301E+00       4    6    1         0.7620162287E+01      0.1149272321E+02
          0                 3           2             5    8     1      -0.5949597914E-01       5    8    1        -0.3298709775E+01      0.5639160820E+01
          0                 4           2             4    6     1       0.6148072360E-01       4    6    1         0.3453358562E+01      0.7140023633E+01
          0                 5           2             4    6     1       0.2723303651E-01       4    6    1         0.1530239201E+01      0.3085597410E+01
          0                 6           2             4    6     1       0.1205776775E-01       4    6    1         0.6777847238E+00      0.1335020910E+01
          0                 7           2             4    6     1       0.5336513325E-02       4    6    1         0.3000807226E+00      0.5782056786E+00
          0                 8           2             4    6     1       0.2360880651E-02       4    6    1         0.1328020175E+00      0.2506575157E+00
          0                 9           2             4    6     1       0.1044051588E-02       4    6    1         0.5874858971E-01      0.1087540444E+00
          0                10           2             4    6     1       0.4615374445E-03       4    6    1         0.2597898402E-01      0.4722175280E-01
                                                   Max.-Head-Change                         Max.-Flux-Residual
  Residual-Control   Outer-Iter.   Inner-Iter.     Column Row Layer    Maximum-Head-Change  Column Row Layer    Maximum-Flux-Residual          L2-NORM 
          0                11           2             4    6     1       0.2039550125E-03       4    6    1         0.1148376745E-01      0.2051821983E-01
          0                12           1             4    6     1       0.9009692038E-04       4    6    1         0.5074456289E-02      0.8920926438E-02

    ------------------------------------------------
       NWT REQUIRED           12 OUTER ITERATIONS 
       AND A TOTAL OF         23 INNER ITERATIONS.
    ------------------------------------------------

 NO OUTPUT CONTROL FOR STRESS PERIOD    7   TIME STEP   23
 
 SOLVING FOR HEAD 
                                                   Max.-Head-Change                         Max.-Flux-Residual
  Residual-Control   Outer-Iter.   Inner-Iter.     Column Row Layer    Maximum-Head-Change  Column Row Layer    Maximum-Flux-Residual          L2-NORM 
          0                 1           2             4    6     1       0.3290638002E+00       4    6    1         0.1764006029E+02      0.2737496111E+02
          0                 2           2             4    6     1       0.1307485783E+00       4    6    1         0.7000780949E+01      0.1074120657E+02
          0                 3           2             5    8     1      -0.5919522024E-01       5    8    1        -0.3279790502E+01      0.5860514575E+01
          0                 4           2             4    6     1       0.5923627719E-01       4    6    1         0.3325824749E+01      0.7015571928E+01
          0                 5           2             4    6     1       0.2567620994E-01       4    6    1         0.1441754447E+01      0.3003850036E+01
          0                 6           2             4    7     1       0.1122206370E-01       4    6    1         0.6249132689E+00      0.1287349668E+01
          0                 7           2             4    7     1       0.4924297356E-02       4    7    1         0.2734306471E+00      0.5521566135E+00
          0                 8           2             4    7     1       0.2158920080E-02       4    7    1         0.1199707912E+00      0.2369966625E+00
          0                 9           2             4    7     1       0.9457414551E-03       4    7    1         0.5259283728E-01      0.1017901978E+00
          0                10           2             4    7     1       0.4139740413E-03       4    7    1         0.2303685135E-01      0.4374473980E-01
                                                   Max.-Head-Change                         Max.-Flux-Residual
  Residual-Control   Outer-Iter.   Inner-Iter.     Column Row Layer    Maximum-Head-Change  Column Row Layer    Maximum-Flux-Residual          L2-NORM 
          0                11           2             4    7     1       0.1810749781E-03       4    7    1         0.1008291774E-01      0.1880948053E-01
          0                12           1             4    7     1       0.7914927162E-04       4    7    1         0.4409969908E-02      0.8091632145E-02

    ------------------------------------------------
       NWT REQUIRED           12 OUTER ITERATIONS 
       AND A TOTAL OF         23 INNER ITERATIONS.
    ------------------------------------------------

 NO OUTPUT CONTROL FOR STRESS PERIOD    7   TIME STEP   24
 
 SOLVING FOR HEAD 
                                                   Max.-Head-Change                         Max.-Flux-Residual
  Residual-Control   Outer-Iter.   Inner-Iter.     Column Row Layer    Maximum-Head-Change  Column Row Layer    Maximum-Flux-Residual          L2-NORM 
          0                 1           2             4    6     1       0.3073934455E+00       4    6    1         0.1646564688E+02      0.2592802581E+02
          0                 2           2             4    6     1       0.1221477444E+00       4    6    1         0.6541018808E+01      0.1006025389E+02
          0                 3           2             5    8     1      -0.5891892737E-01       5    8    1        -0.3263212181E+01      0.5976125578E+01
          0                 4           2             4    6     1       0.5788648846E-01       4    6    1         0.3249634825E+01      0.6922039375E+01
          0                 5           2             4    6     1       0.2508613030E-01       4    6    1         0.1408937632E+01      0.2946706055E+01
          0                 6           2             4    6     1       0.1086609711E-01       4    6    1         0.6105476844E+00      0.1255149910E+01
          0                 7           2             4    6     1       0.4704468510E-02       4    6    1         0.2644428959E+00      0.5348919143E+00
          0                 8           2             4    6     1       0.2035902675E-02       4    6    1         0.1144833606E+00      0.2280473803E+00
          0                 9           2             4    6     1       0.8806923028E-03       4    6    1         0.4954083333E-01      0.9726407293E-01
          0                10           2             4    6     1       0.3808223414E-03       4    6    1         0.2142919828E-01      0.4149830131E-01
                                                   Max.-Head-Change                         Max.-Flux-Residual
  Residual-Control   Outer-Iter.   Inner-Iter.     Column Row Layer    Maximum-Head-Change  Column Row Layer    Maximum-Flux-Residual          L2-NORM 
          0                11           2             4    6     1       0.1646118429E-03       4    6    1         0.9265746886E-02      0.1771099899E-01
          0                12           1             4    6     1       0.7112941861E-04       4    6    1         0.4004941480E-02      0.7560959802E-02

    ------------------------------------------------
       NWT REQUIRED           12 OUTER ITERATIONS 
       AND A TOTAL OF         23 INNER ITERATIONS.
    ------------------------------------------------

 NO OUTPUT CONTROL FOR STRESS PERIOD    7   TIME STEP   25
 
 SOLVING FOR HEAD 
                                                   Max.-Head-Change                         Max.-Flux-Residual
  Residual-Control   Outer-Iter.   Inner-Iter.     Column Row Layer    Maximum-Head-Change  Column Row Layer    Maximum-Flux-Residual          L2-NORM 
          0                 1           2             4    6     1       0.2907426850E+00       4    6    1         0.1556614426E+02      0.2421891784E+02
          0                 2           2             4    6     1       0.1155357515E+00       4    6    1         0.6187462730E+01      0.9319305134E+01
          0                 3           2             5    8     1      -0.6062201073E-01       5    8    1        -0.3353800093E+01      0.6277863826E+01
          0                 4           2             4    6     1       0.5687678691E-01       4    6    1         0.3192578969E+01      0.6828108819E+01
          0                 5           2             4    6     1       0.2405721104E-01       4    6    1         0.1350144851E+01      0.2854961863E+01
          0                 6           2             4    6     1       0.1017687005E-01       4    6    1         0.5710676757E+00      0.1195016042E+01
          0                 7           2             4    7     1       0.4327314585E-02       4    6    1         0.2415752326E+00      0.5006697650E+00
          0                 8           2             4    7     1       0.1851757320E-02       4    7    1         0.1028296719E+00      0.2099365001E+00
          0                 9           2             4    7     1       0.7917018724E-03       4    7    1         0.4399857351E-01      0.8809330834E-01
          0                10           2             4    7     1       0.3382039283E-03       4    7    1         0.1880932755E-01      0.3698964202E-01
                                                   Max.-Head-Change                         Max.-Flux-Residual
  Residual-Control   Outer-Iter.   Inner-Iter.     Column Row Layer    Maximum-Head-Change  Column Row Layer    Maximum-Flux-Residual          L2-NORM 
          0                11           2             4    7     1       0.1443643985E-03       4    7    1         0.8034329568E-02      0.1554058779E-01
          0                12           1             4    7     1       0.6157850073E-04       4    7    1         0.3429198601E-02      0.6532453629E-02

    ------------------------------------------------
       NWT REQUIRED           12 OUTER ITERATIONS 
       AND A TOTAL OF         23 INNER ITERATIONS.
    ------------------------------------------------

 NO OUTPUT CONTROL FOR STRESS PERIOD    7   TIME STEP   26
 
 SOLVING FOR HEAD 
                                                   Max.-Head-Change                         Max.-Flux-Residual
  Residual-Control   Outer-Iter.   Inner-Iter.     Column Row Layer    Maximum-Head-Change  Column Row Layer    Maximum-Flux-Residual          L2-NORM 
          0                 1           2             4    6     1       0.2510255785E+00       4    6    1         0.1340771776E+02      0.2212892786E+02
          0                 2           2             4    6     1       0.9718653598E-01       4    6    1         0.5194355574E+01      0.8354201119E+01
          0                 3           2             5    8     1      -0.6176628447E-01       5    8    1        -0.3416047047E+01      0.6565373872E+01
          0                 4           2             4    7     1       0.5423844410E-01       4    6    1         0.3027842818E+01      0.6692251384E+01
          0                 5           2             4    7     1       0.2326684734E-01       4    7    1         0.1289240163E+01      0.2785706378E+01
          0                 6           2             4    7     1       0.9970033641E-02       4    7    1         0.5529829732E+00      0.1160959412E+01
          0                 7           2             4    7     1       0.4267896869E-02       4    7    1         0.2369304794E+00      0.4843401476E+00
          0                 8           2             4    7     1       0.1825226743E-02       4    7    1         0.1014123224E+00      0.2022518634E+00
          0                 9           2             4    7     1       0.7798855360E-03       4    7    1         0.4336590597E-01      0.8452860156E-01
          0                10           2             4    7     1       0.3329506159E-03       4    7    1         0.1852761027E-01      0.3535476244E-01
                                                   Max.-Head-Change                         Max.-Flux-Residual
  Residual-Control   Outer-Iter.   Inner-Iter.     Column Row Layer    Maximum-Head-Change  Column Row Layer    Maximum-Flux-Residual          L2-NORM 
          0                11           2             4    7     1       0.1420318866E-03       4    7    1         0.7909104620E-02      0.1479764181E-01
          0                12           1             4    7     1       0.6054379442E-04       4    7    1         0.3373604752E-02      0.6197374322E-02

    ------------------------------------------------
       NWT REQUIRED           12 OUTER ITERATIONS 
       AND A TOTAL OF         23 INNER ITERATIONS.
    ------------------------------------------------

 NO OUTPUT CONTROL FOR STRESS PERIOD    7   TIME STEP   27
 
 SOLVING FOR HEAD 
                                                   Max.-Head-Change                         Max.-Flux-Residual
  Residual-Control   Outer-Iter.   Inner-Iter.     Column Row Layer    Maximum-Head-Change  Column Row Layer    Maximum-Flux-Residual          L2-NORM 
          0                 1           2             4    6     1       0.2386840766E+00       4    6    1         0.1274782847E+02      0.2126434472E+02
          0                 2           2             4    6     1       0.9233071806E-01       4    6    1         0.4939051537E+01      0.7911372319E+01
          0                 3           2             5    8     1      -0.6151191192E-01       5    8    1        -0.3401069453E+01      0.6694496394E+01
          0                 4           2             4    7     1       0.5334534423E-01       4    6    1         0.2986142390E+01      0.6631968512E+01
          0                 5           2             4    6     1       0.2253430637E-01       4    6    1         0.1264312873E+01      0.2744076179E+01
          0                 6           2             4    6     1       0.9528846976E-02       4    6    1         0.5349320172E+00      0.1136272192E+01
          0                 7           2             4    6     1       0.4026913327E-02       4    6    1         0.2261833568E+00      0.4708111933E+00
          0                 8           2             4    6     1       0.1700816124E-02       4    6    1         0.9557847230E-01      0.1951908120E+00
          0                 9           2             4    6     1       0.7179783220E-03       4    6    1         0.4036585400E-01      0.8096432270E-01
          0                10           2             4    6     1       0.3029343097E-03       4    6    1         0.1703877766E-01      0.3359901554E-01
                                                   Max.-Head-Change                         Max.-Flux-Residual
  Residual-Control   Outer-Iter.   Inner-Iter.     Column Row Layer    Maximum-Head-Change  Column Row Layer    Maximum-Flux-Residual          L2-NORM 
          0                11           2             4    6     1       0.1277561312E-03       4    6    1         0.7188646338E-02      0.1394882543E-01
          0                12           1             4    6     1       0.5385468874E-04       4    6    1         0.3031468630E-02      0.5793074396E-02

    ------------------------------------------------
       NWT REQUIRED           12 OUTER ITERATIONS 
       AND A TOTAL OF         23 INNER ITERATIONS.
    ------------------------------------------------

 NO OUTPUT CONTROL FOR STRESS PERIOD    7   TIME STEP   28
 
 SOLVING FOR HEAD 
                                                   Max.-Head-Change                         Max.-Flux-Residual
  Residual-Control   Outer-Iter.   Inner-Iter.     Column Row Layer    Maximum-Head-Change  Column Row Layer    Maximum-Flux-Residual          L2-NORM 
          0                 1           2             4    6     1       0.2267091363E+00       4    6    1         0.1211264064E+02      0.1993313377E+02
          0                 2           2             4    6     1       0.8761625471E-01       4    6    1         0.4690809285E+01      0.7384145237E+01
          0                 3           2             5    8     1      -0.6130222928E-01       5    8    1        -0.3388498527E+01      0.6799692183E+01
          0                 4           2             4    6     1       0.5253898349E-01       4    6    1         0.2946108327E+01      0.6570289511E+01
          0                 5           2             4    6     1       0.2223009853E-01       4    6    1         0.1247296311E+01      0.2717810894E+01
          0                 6           2             4    6     1       0.9399839218E-02       4    6    1         0.5277084580E+00      0.1125111865E+01
          0                 7           2             4    6     1       0.3972260492E-02       4    6    1         0.2231203738E+00      0.4660780054E+00
          0                 8           2             4    6     1       0.1677684824E-02       4    6    1         0.9428101535E-01      0.1931868021E+00
          0                 9           2             4    6     1       0.7081966616E-03       4    6    1         0.3981677460E-01      0.8011710653E-01
          0                10           2             4    6     1       0.2988011575E-03       4    6    1         0.1680660796E-01      0.3324132541E-01
                                                   Max.-Head-Change                         Max.-Flux-Residual
  Residual-Control   Outer-Iter.   Inner-Iter.     Column Row Layer    Maximum-Head-Change  Column Row Layer    Maximum-Flux-Residual          L2-NORM 
          0                11           2             4    6     1       0.1260109754E-03       4    6    1         0.7090554059E-02      0.1379799101E-01
          0                12           1             4    6     1       0.5311831853E-04       4    6    1         0.2990054306E-02      0.5729536799E-02

    ------------------------------------------------
       NWT REQUIRED           12 OUTER ITERATIONS 
       AND A TOTAL OF         23 INNER ITERATIONS.
    ------------------------------------------------

 NO OUTPUT CONTROL FOR STRESS PERIOD    7   TIME STEP   29
 
 SOLVING FOR HEAD 
                                                   Max.-Head-Change                         Max.-Flux-Residual
  Residual-Control   Outer-Iter.   Inner-Iter.     Column Row Layer    Maximum-Head-Change  Column Row Layer    Maximum-Flux-Residual          L2-NORM 
          0                 1           2             4    6     1       0.2089898144E+00       4    6    1         0.1114633328E+02      0.1895877329E+02
          0                 2           2             4    6     1       0.7839014216E-01       4    6    1         0.4189880323E+01      0.6889042717E+01
          0                 3           2             5    8     1      -0.6123370828E-01       5    8    1        -0.3381701517E+01      0.6968286991E+01
          0                 4           2             4    7     1       0.5142049014E-01       4    6    1         0.2876857170E+01      0.6521777689E+01
          0                 5           2             4    7     1       0.2148222031E-01       4    7    1         0.1188866296E+01      0.2664537310E+01
          0                 6           2             4    7     1       0.8963774506E-02       4    7    1         0.4966230405E+00      0.1085849537E+01
          0                 7           2             4    7     1       0.3735986650E-02       4    7    1         0.2071958848E+00      0.4427597221E+00
          0                 8           2             4    7     1       0.1555477958E-02       4    7    1         0.8634595726E-01      0.1806338628E+00
          0                 9           2             4    7     1       0.6469990465E-03       4    7    1         0.3594600438E-01      0.7373022353E-01
          0                10           2             4    7     1       0.2688796261E-03       4    7    1         0.1495008592E-01      0.3010862569E-01
                                                   Max.-Head-Change                         Max.-Flux-Residual
  Residual-Control   Outer-Iter.   Inner-Iter.     Column Row Layer    Maximum-Head-Change  Column Row Layer    Maximum-Flux-Residual          L2-NORM 
          0                11           1             4    7     1       0.1116494335E-03       4    7    1         0.6212324397E-02      0.1230041995E-01
          0                12           1             4    7     1       0.4632618082E-04       4    7    1         0.2579357563E-02      0.5027106958E-02

    ------------------------------------------------
       NWT REQUIRED           12 OUTER ITERATIONS 
       AND A TOTAL OF         22 INNER ITERATIONS.
    ------------------------------------------------

 NO OUTPUT CONTROL FOR STRESS PERIOD    7   TIME STEP   30



 STREAM LISTING     PERIOD      7   STEP       30

 LAYER ROW COL. STREAM  RCH.  FLOW INTO     FLOW TO   FLOW OUT OF   OVRLND.     DIRECT     STREAM       STREAM     STREAM     STREAM   STREAMBED  STREAMBED
                SEG.NO.  NO.  STRM. RCH.    AQUIFER    STRM. RCH.    RUNOFF     PRECIP       ET          HEAD       DEPTH      WIDTH   CONDCTNC.   GRADIENT

   1    1    1     1     1    5.7704E+01  3.6391E-01   5.7340E+01  0.000E+00  0.000E+00  0.000E+00  1.09454E+03  1.497E+00  1.798E+01  8.092E-02  1.499E+00
   1    2    2     1     2    5.7340E+01  5.6353E-01   5.6777E+01  0.000E+00  0.000E+00  0.000E+00  1.08955E+03  1.491E+00  1.792E+01  1.255E-01  1.497E+00
   1    3    3     1     3    5.6777E+01  4.8055E-01   5.6296E+01  0.000E+00  0.000E+00  0.000E+00  1.08390E+03  1.485E+00  1.786E+01  1.071E-01  1.495E+00
   1    3    4     1     4    5.6296E+01  4.4247E-01   5.5854E+01  0.000E+00  0.000E+00  0.000E+00  1.07889E+03  1.479E+00  1.780E+01  9.879E-02  1.493E+00
   1    4    5     2     1    5.3854E+01  3.8295E-01   5.3471E+01  0.000E+00  0.000E+00  0.000E+00  1.07384E+03  1.910E+00  1.200E+01  7.800E-02  1.637E+00
   1    5    6     2     2    5.3471E+01  2.9414E-01   5.3177E+01  0.000E+00  0.000E+00  0.000E+00  1.06841E+03  1.902E+00  1.200E+01  6.000E-02  1.634E+00
   1    6    6     2     3    5.3177E+01  2.9376E-01   5.2883E+01  0.000E+00  0.000E+00  0.000E+00  1.06369E+03  1.896E+00  1.200E+01  6.000E-02  1.632E+00
   1    7    6     2     4    5.2883E+01  2.9339E-01   5.2590E+01  0.000E+00  0.000E+00  0.000E+00  1.05897E+03  1.890E+00  1.200E+01  6.000E-02  1.630E+00
   1    8    6     2     5    5.2590E+01  2.9301E-01   5.2297E+01  0.000E+00  0.000E+00  0.000E+00  1.05424E+03  1.883E+00  1.200E+01  6.000E-02  1.628E+00
   1    3    5     3     1    2.0000E+00  2.8252E-01   1.7175E+00  0.000E+00  0.000E+00  0.000E+00  1.07555E+03  1.909E+00  9.636E+00  7.227E-02  1.955E+00
   1    3    6     3     2    1.7175E+00  2.4905E-01   1.4684E+00  0.000E+00  0.000E+00  0.000E+00  1.07264E+03  1.727E+00  8.909E+00  6.682E-02  1.864E+00
   1    3    7     3     3    1.4684E+00  1.9718E-01   1.2712E+00  0.000E+00  0.000E+00  0.000E+00  1.06987E+03  1.555E+00  8.218E+00  5.547E-02  1.777E+00
   1    4    8     3     4    1.2712E+00  2.2567E-01   1.0456E+00  0.000E+00  0.000E+00  0.000E+00  1.06682E+03  1.364E+00  7.455E+00  6.709E-02  1.682E+00
   1    5    8     3     5    1.0456E+00  1.5790E-01   8.8768E-01  0.000E+00  0.000E+00  0.000E+00  1.06362E+03  1.164E+00  6.655E+00  4.991E-02  1.582E+00
   1    6    8     3     6    8.8768E-01  5.5980E-02   8.3170E-01  0.000E+00  0.000E+00  0.000E+00  1.06158E+03  1.036E+00  6.145E+00  1.844E-02  1.518E+00
   1    5   10     4     1    1.0000E+01  9.0919E-02   9.9091E+00  0.000E+00  0.000E+00  0.000E+00  1.07836E+03  6.368E-01  1.000E+01  2.500E-02  1.212E+00
   1    5    9     4     2    9.9091E+00  1.8158E-01   9.7275E+00  0.000E+00  0.000E+00  0.000E+00  1.07154E+03  6.315E-01  1.000E+01  5.000E-02  1.211E+00
   1    6    8     4     3    9.7275E+00  1.2689E-01   9.6006E+00  0.000E+00  0.000E+00  0.000E+00  1.06381E+03  6.256E-01  1.000E+01  3.500E-02  1.209E+00
   1    6    8     5     1    1.0432E+01  2.2686E-01   1.0205E+01  0.000E+00  0.000E+00  0.000E+00  1.05868E+03  6.790E-01  1.542E+01  6.166E-02  1.226E+00
   1    7    7     5     2    1.0205E+01  2.7894E-01   9.9265E+00  0.000E+00  0.000E+00  0.000E+00  1.05417E+03  6.732E-01  1.519E+01  7.594E-02  1.224E+00
   1    8    7     5     3    9.9265E+00  1.9221E-01   9.7343E+00  0.000E+00  0.000E+00  0.000E+00  1.04992E+03  6.676E-01  1.497E+01  5.241E-02  1.223E+00
   1    8    6     5     4    9.7343E+00  1.3577E-01   9.5985E+00  0.000E+00  0.000E+00  0.000E+00  1.04691E+03  6.637E-01  1.482E+01  3.706E-02  1.221E+00
   1    9    6     6     1    3.9425E+01  2.7609E-01   3.9149E+01  0.000E+00  0.000E+00  0.000E+00  1.04433E+03  1.601E+00  1.200E+01  6.000E-02  1.534E+00
   1   10    7     6     2    3.9149E+01  2.7568E-01   3.8873E+01  0.000E+00  0.000E+00  0.000E+00  1.03978E+03  1.595E+00  1.200E+01  6.000E-02  1.532E+00
   1   11    7     6     3    3.8873E+01  2.7528E-01   3.8598E+01  0.000E+00  0.000E+00  0.000E+00  1.03522E+03  1.588E+00  1.200E+01  6.000E-02  1.529E+00
   1   12    7     6     4    3.8598E+01  2.7487E-01   3.8323E+01  0.000E+00  0.000E+00  0.000E+00  1.03067E+03  1.581E+00  1.200E+01  6.000E-02  1.527E+00
   1   13    7     6     5    3.8323E+01  8.9780E-03   3.8314E+01  0.000E+00  0.000E+00  0.000E+00  1.02749E+03  1.578E+00  1.200E+01  2.400E-02  1.247E-01
   1   14    9     7     1    1.5000E+02  1.3362E+00   1.4866E+02  0.000E+00  0.000E+00  0.000E+00  1.03987E+03  2.288E+00  5.529E+01  5.593E-01  7.963E-01
   1   13    8     7     2    1.4866E+02  1.8282E+00   1.4684E+02  0.000E+00  0.000E+00  0.000E+00  1.03478E+03  2.279E+00  5.526E+01  6.148E-01  9.913E-01
   1   13    7     7     3    1.4684E+02  1.4393E+00   1.4540E+02  0.000E+00  0.000E+00  0.000E+00  1.02969E+03  2.271E+00  5.522E+01  5.585E-01  8.591E-01
   1   13    6     8     1    1.8371E+02  9.3591E-01   1.8277E+02  0.000E+00  0.000E+00  0.000E+00  1.02491E+03  3.036E+00  4.403E+01  4.487E-01  6.953E-01
   1   13    5     8     2    1.8277E+02  1.6379E-01   1.8261E+02  0.000E+00  0.000E+00  0.000E+00  1.01866E+03  3.033E+00  4.398E+01  4.482E-01  1.218E-01
   1   13    4     8     3    1.8261E+02 -2.5679E+00   1.8518E+02  0.000E+00  0.000E+00  0.000E+00  1.01242E+03  3.040E+00  4.409E+01  4.493E+00 -1.905E-01
   1   13    3     8     4    1.8518E+02 -3.7084E+00   1.8889E+02  0.000E+00  0.000E+00  0.000E+00  1.00618E+03  3.060E+00  4.437E+01  4.521E+00 -2.734E-01
   1   13    2     8     5    1.8889E+02 -2.5872E+00   1.9147E+02  0.000E+00  0.000E+00  0.000E+00  9.99954E+02  3.079E+00  4.465E+01  4.550E+00 -1.896E-01
   1   13    1     8     6    1.9147E+02 -1.9389E+00   1.9341E+02  0.000E+00  0.000E+00  0.000E+00  9.94968E+02  3.093E+00  4.484E+01  2.742E+00 -2.357E-01
   1    8    6     9     1    2.2470E+01  0.0000E+00   2.2470E+01  0.000E+00  0.000E+00  0.000E+00  1.08243E+03  3.683E+00  4.000E+00  0.000E+00  2.228E+00
   1    8    5     9     2    2.2470E+01  0.0000E+00   2.2470E+01  0.000E+00  0.000E+00  0.000E+00  1.08193E+03  3.683E+00  4.000E+00  0.000E+00  2.228E+00





UNSATURATED ZONE PACKAGE VOLUMETRIC BUDGET FOR  TIME STEP    30 STRESS PERIOD    7
  ------------------------------------------------------------------------------



     CUMULATIVE VOLUMES      L**3       RATES FOR THIS TIME STEP      L**3/T
     ------------------                 ------------------------

           IN:                                      IN:
           ---                                      ---
        INFILTRATION =   831327768.3210          INFILTRATION =          23.3179

          OUT:                                     OUT:
          ----                                     ----
              UZF ET =   104047759.5008                UZF ET =          23.3175
        UZF RECHARGE =   178129949.1973          UZF RECHARGE =          65.0854

            IN - OUT =   549150059.6229              IN - OUT =         -65.0850

          STORAGE:                                 STORAGE:
          --------                                 --------
      STORAGE CHANGE =   549152179.4141        STORAGE CHANGE =         -65.0850

 PERCENT DISCREPANCY IS DIFFERENCE BETWEEN IN-OUT MINUS CHANGE IN STORAGE
 DIVIDED BY THE AVERAGE OF IN AND OUT TIMES 100

 PERCENT DISCREPANCY =          -0.00     PERCENT DISCREPANCY =           0.00






1
  VOLUMETRIC BUDGET FOR AGRICULTURAL FIELDS AT  END OF TIME STEP   30, STRESS PERIOD   7
  ------------------------------------------------------------------------------

     CUMULATIVE VOLUMES      L**3       RATES FOR THIS TIME STEP      L**3/T
     ------------------                 ------------------------

           IN:                                      IN:
           ---                                      ---
           AG WELLS      =   537334336.0000             AG WELLS      =           0.0000
      DIVERSION SEGMENTS =   280540864.0000        DIVERSION SEGMENTS =          22.4700
           GW IRRIGATION =           0.0000             GW IRRIGATION =           0.0000
           SW IRRIGATION =           0.0000             SW IRRIGATION =           0.0000
        SYSTEM LOSSES GW =           0.0000          SYSTEM LOSSES GW =           0.0000
        SYSTEM LOSSES SW =           0.0000          SYSTEM LOSSES SW =           0.0000

                TOTAL IN =   817875200.0000                  TOTAL IN =          22.4700

          OUT:                                     OUT:
          ----                                     ----
           AG WELLS      =           0.0000             AG WELLS      =           0.0000
      DIVERSION SEGMENTS =           0.0000        DIVERSION SEGMENTS =           0.0000
           GW IRRIGATION =   537334336.0000             GW IRRIGATION =           0.0000
           SW IRRIGATION =   280546592.0000             SW IRRIGATION =          22.4704
        SYSTEM LOSSES GW =           0.0000          SYSTEM LOSSES GW =           0.0000
        SYSTEM LOSSES SW =           0.0000          SYSTEM LOSSES SW =           0.0000

               TOTAL OUT =   817880960.0000                 TOTAL OUT =          22.4704

                IN - OUT =       -5760.0000                  IN - OUT =      -4.4823E-04

     PERCENT DISCREPANCY =          -0.00         PERCENT DISCREPANCY =          -0.00



1
  VOLUMETRIC BUDGET FOR ENTIRE MODEL AT END OF TIME STEP   30, STRESS PERIOD   7
  ------------------------------------------------------------------------------

     CUMULATIVE VOLUMES      L**3       RATES FOR THIS TIME STEP      L**3/T
     ------------------                 ------------------------

           IN:                                      IN:
           ---                                      ---
             STORAGE     =   636937088.0000               STORAGE     =          16.5937
       CONSTANT HEAD     =           0.0000         CONSTANT HEAD     =           0.0000
     HEAD DEP BOUNDS     =     4533388.0000       HEAD DEP BOUNDS     =           0.2858
      STREAM LEAKAGE     =   192256640.0000        STREAM LEAKAGE     =          12.6234
        UZF RECHARGE     =   178129952.0000          UZF RECHARGE     =          65.0854
               GW ET     =           0.0000                 GW ET     =           0.0000
     SURFACE LEAKAGE     =           0.0000       SURFACE LEAKAGE     =           0.0000
           AG WELLS      =           0.0000             AG WELLS      =           0.0000

                TOTAL IN =  1011857024.0000                  TOTAL IN =          94.5883

          OUT:                                     OUT:
          ----                                     ----
             STORAGE     =   299083552.0000               STORAGE     =          83.4515
       CONSTANT HEAD     =           0.0000         CONSTANT HEAD     =           0.0000
     HEAD DEP BOUNDS     =     4603832.0000       HEAD DEP BOUNDS     =           0.2916
      STREAM LEAKAGE     =   170768896.0000        STREAM LEAKAGE     =          10.8023
        UZF RECHARGE     =           0.0000          UZF RECHARGE     =           0.0000
               GW ET     =       56916.5898                 GW ET     =       3.7859E-02
     SURFACE LEAKAGE     =           0.0000       SURFACE LEAKAGE     =           0.0000
           AG WELLS      =   537334336.0000             AG WELLS      =           0.0000

               TOTAL OUT =  1011847552.0000                 TOTAL OUT =          94.5833

                IN - OUT =        9472.0000                  IN - OUT =       4.9515E-03

     PERCENT DISCREPANCY =           0.00         PERCENT DISCREPANCY =           0.01






         TIME SUMMARY AT END OF TIME STEP   30 IN STRESS PERIOD    7
                    SECONDS     MINUTES      HOURS       DAYS        YEARS
                    -----------------------------------------------------------
   TIME STEP LENGTH  87667.      1461.1      24.352      1.0147     2.77799E-03
 STRESS PERIOD TIME 2.63000E+06  43833.      730.56      30.440     8.33397E-02
         TOTAL TIME 1.58664E+07 2.64440E+05  4407.3      183.64     0.50278    
1
1
                            STRESS PERIOD NO.    8, LENGTH =   2630000.    
                            -----------------------------------------------

                              NUMBER OF TIME STEPS =    30

                               MULTIPLIER FOR DELT =     1.000

                            INITIAL TIME STEP SIZE =   87666.66    

 REUSING NON-PARAMETER GHB CELLS FROM LAST STRESS PERIOD

      2 GHB CELLS

 REUSING STREAM SEGMENT DATA FROM LAST STRESS PERIOD



            AREAL INFILTRATION RATE
 READING ON UNIT   19 WITH FORMAT: (FREE)              

            1           2           3           4           5           6           7           8           9          10
 ........................................................................................................................
   1   1.0000E-10  2.0000E-10   0.000       0.000       0.000       0.000       0.000       0.000       0.000       0.000    
   2   2.0000E-10  1.0000E-10  2.0000E-10   0.000       0.000      8.0000E-10  8.0000E-10  5.0000E-10   0.000       0.000    
   3    0.000      5.0000E-10  1.0000E-10  1.0000E-10  8.0000E-10  8.0000E-10  5.0000E-10  5.0000E-10   0.000       0.000    
   4   8.0000E-10  5.0000E-10  1.0000E-10  1.0000E-10  1.0000E-10  1.0000E-10  1.0000E-10  1.0000E-10  2.0000E-10   0.000    
   5   8.0000E-10  5.0000E-10  1.0000E-10  1.0000E-10  1.0000E-10  1.0000E-10  1.0000E-10  1.0000E-10  1.0000E-10  1.0000E-10
   6   8.0000E-10  5.0000E-10  5.0000E-10  2.0000E-10  2.0000E-10  1.0000E-10  1.0000E-10  1.0000E-10  1.0000E-10  5.0000E-10
   7   8.0000E-10  5.0000E-10  5.0000E-10  2.0000E-10  2.0000E-10  1.0000E-10  1.0000E-10  2.0000E-10  2.0000E-10   0.000    
   8    0.000      5.0000E-10  5.0000E-10  2.0000E-10  2.0000E-10  1.0000E-10  1.0000E-10  2.0000E-10  5.0000E-10   0.000    
   9    0.000      5.0000E-10  5.0000E-10  2.0000E-10  2.0000E-10  1.0000E-10  1.0000E-10  2.0000E-10  5.0000E-10   0.000    
  10    0.000      5.0000E-10  5.0000E-10  2.0000E-10  2.0000E-10  1.0000E-10  1.0000E-10  2.0000E-10  5.0000E-10  8.0000E-10
  11    0.000      1.0000E-10  1.0000E-10  1.0000E-10  1.0000E-10  1.0000E-10  1.0000E-10  2.0000E-10  5.0000E-10   0.000    
  12   1.0000E-10  1.0000E-10  1.0000E-10  1.0000E-10  1.0000E-10  1.0000E-10  1.0000E-10  1.0000E-10  2.0000E-10   0.000    
  13   1.0000E-10  1.0000E-10  2.0000E-10  2.0000E-10  2.0000E-10  2.0000E-10  2.0000E-10  1.0000E-10  1.0000E-10   0.000    
  14    0.000      2.0000E-10  5.0000E-10  5.0000E-10  5.0000E-10  5.0000E-10  5.0000E-10  2.0000E-10  1.0000E-10   0.000    
  15    0.000       0.000      8.0000E-10  8.0000E-10  8.0000E-10  8.0000E-10   0.000       0.000       0.000       0.000    

                  ET RATE =  4.000000E-07

 USING ET EXTINCTION DEPTH FROM PREVIOUS STRESS PERIOD. CURRENT PERIOD IS:       8

 USING EXTINCTION WATER CONTENT FROM PREVIOUS STRESS PERIOD. CURRENT PERIOD IS:       8

 USING AIR ENTRY PRESSURE FROM PREVIOUS STRESS PERIOD. CURRENT PERIOD IS:       8

 USING ROOT PRESSURE HEAD FROM PREVIOUS STRESS PERIOD. CURRENT PERIOD IS:       8

 USING ROOT ACTIVITY FROM PREVIOUS STRESS PERIOD. CURRENT PERIOD IS:       8

 PROCESSING AG STRESS PERIOD DATA

 READING AG STRESS PERIOD DATA

 READING IRRIGATION SEGMENT

 READING IRRIGATION WELL

 READING SUPPLEMENTAL WELL

 END PROCESSING AG STRESS PERIOD DATA OPTIONS
 
 SOLVING FOR HEAD 
                                                   Max.-Head-Change                         Max.-Flux-Residual
  Residual-Control   Outer-Iter.   Inner-Iter.     Column Row Layer    Maximum-Head-Change  Column Row Layer    Maximum-Flux-Residual          L2-NORM 
          0                 1           2             4    7     1       0.1936766861E+00       4    7    1         0.1027270723E+02      0.1748847753E+02
          0                 2           2             5    8     1      -0.1557027489E+00       5    8    1        -0.8590713216E+01      0.1764593022E+02
          0                 3           2             5    8     1      -0.5668095137E-01       5    8    1        -0.3124276716E+01      0.6781267833E+01
          0                 4           2             4    8     1      -0.2093805894E-01       5    6    1        -0.1142232820E+01      0.2612063894E+01
          0                 5           2             5    6     1      -0.8075720449E-02       5    6    1        -0.4455506112E+00      0.9472040007E+00
          0                 6           2             5    6     1      -0.3149180631E-02       5    6    1        -0.1737754064E+00      0.3586340142E+00
          0                 7           2             5    6     1      -0.1227813232E-02       5    6    1        -0.6776102009E-01      0.1391822976E+00
          0                 8           2             5    6     1      -0.4786380796E-03       5    6    1        -0.2641759549E-01      0.5417759498E-01
          0                 9           2             5    6     1      -0.1865700341E-03       5    6    1        -0.1029793554E-01      0.2111281207E-01
          0                10           1             4    7     1      -0.7321373946E-04       5    6    1        -0.4013928849E-02      0.8236304331E-02

    ------------------------------------------------
       NWT REQUIRED           10 OUTER ITERATIONS 
       AND A TOTAL OF         19 INNER ITERATIONS.
    ------------------------------------------------

 OUTPUT CONTROL FOR STRESS PERIOD    8   TIME STEP    1
    PRINT BUDGET
    SAVE BUDGET
 UBDSV1 SAVING "         STORAGE" ON UNIT 102 AT TIME STEP  1, STRESS PERIOD   8
 UBDSV2 SAVING "   CONSTANT HEAD" ON UNIT 102 AT TIME STEP  1, STRESS PERIOD   8
 UBDSV1 SAVING "FLOW RIGHT FACE " ON UNIT 102 AT TIME STEP  1, STRESS PERIOD   8
 UBDSV1 SAVING "FLOW FRONT FACE " ON UNIT 102 AT TIME STEP  1, STRESS PERIOD   8

  HEAD DEP BOUNDS   PERIOD    8   STEP     1
 BOUNDARY      1   LAYER   1   ROW    13   COL     1   RATE   -0.291454    
 BOUNDARY      2   LAYER   1   ROW    14   COL     9   RATE    0.285784    



 STREAM LISTING     PERIOD      8   STEP        1

 LAYER ROW COL. STREAM  RCH.  FLOW INTO     FLOW TO   FLOW OUT OF   OVRLND.     DIRECT     STREAM       STREAM     STREAM     STREAM   STREAMBED  STREAMBED
                SEG.NO.  NO.  STRM. RCH.    AQUIFER    STRM. RCH.    RUNOFF     PRECIP       ET          HEAD       DEPTH      WIDTH   CONDCTNC.   GRADIENT

   1    1    1     1     1    5.6250E+01  3.5875E-01   5.5891E+01  0.000E+00  0.000E+00  0.000E+00  1.09453E+03  1.479E+00  1.780E+01  8.010E-02  1.493E+00
   1    2    2     1     2    5.5891E+01  5.5550E-01   5.5336E+01  0.000E+00  0.000E+00  0.000E+00  1.08953E+03  1.473E+00  1.774E+01  1.242E-01  1.491E+00
   1    3    3     1     3    5.5336E+01  4.7368E-01   5.4862E+01  0.000E+00  0.000E+00  0.000E+00  1.08389E+03  1.467E+00  1.767E+01  1.060E-01  1.489E+00
   1    3    4     1     4    5.4862E+01  4.3613E-01   5.4426E+01  0.000E+00  0.000E+00  0.000E+00  1.07887E+03  1.461E+00  1.762E+01  9.777E-02  1.487E+00
   1    4    5     2     1    5.2426E+01  3.8056E-01   5.2046E+01  0.000E+00  0.000E+00  0.000E+00  1.07381E+03  1.879E+00  1.200E+01  7.800E-02  1.626E+00
   1    5    6     2     2    5.2046E+01  2.9230E-01   5.1753E+01  0.000E+00  0.000E+00  0.000E+00  1.06838E+03  1.872E+00  1.200E+01  6.000E-02  1.624E+00
   1    6    6     2     3    5.1753E+01  2.9192E-01   5.1461E+01  0.000E+00  0.000E+00  0.000E+00  1.06366E+03  1.865E+00  1.200E+01  6.000E-02  1.622E+00
   1    7    6     2     4    5.1461E+01  2.9154E-01   5.1170E+01  0.000E+00  0.000E+00  0.000E+00  1.05893E+03  1.859E+00  1.200E+01  6.000E-02  1.620E+00
   1    8    6     2     5    5.1170E+01  2.9116E-01   5.0879E+01  0.000E+00  0.000E+00  0.000E+00  1.05421E+03  1.853E+00  1.200E+01  6.000E-02  1.618E+00
   1    3    5     3     1    2.0000E+00  2.8252E-01   1.7175E+00  0.000E+00  0.000E+00  0.000E+00  1.07555E+03  1.909E+00  9.636E+00  7.227E-02  1.955E+00
   1    3    6     3     2    1.7175E+00  2.4905E-01   1.4684E+00  0.000E+00  0.000E+00  0.000E+00  1.07264E+03  1.727E+00  8.909E+00  6.682E-02  1.864E+00
   1    3    7     3     3    1.4684E+00  1.9718E-01   1.2712E+00  0.000E+00  0.000E+00  0.000E+00  1.06987E+03  1.555E+00  8.218E+00  5.547E-02  1.777E+00
   1    4    8     3     4    1.2712E+00  2.2567E-01   1.0456E+00  0.000E+00  0.000E+00  0.000E+00  1.06682E+03  1.364E+00  7.455E+00  6.709E-02  1.682E+00
   1    5    8     3     5    1.0456E+00  1.5790E-01   8.8768E-01  0.000E+00  0.000E+00  0.000E+00  1.06362E+03  1.164E+00  6.655E+00  4.991E-02  1.582E+00
   1    6    8     3     6    8.8768E-01  5.5980E-02   8.3170E-01  0.000E+00  0.000E+00  0.000E+00  1.06158E+03  1.036E+00  6.145E+00  1.844E-02  1.518E+00
   1    5   10     4     1    1.0000E+01  9.0919E-02   9.9091E+00  0.000E+00  0.000E+00  0.000E+00  1.07836E+03  6.368E-01  1.000E+01  2.500E-02  1.212E+00
   1    5    9     4     2    9.9091E+00  1.8158E-01   9.7275E+00  0.000E+00  0.000E+00  0.000E+00  1.07154E+03  6.315E-01  1.000E+01  5.000E-02  1.211E+00
   1    6    8     4     3    9.7275E+00  1.2689E-01   9.6006E+00  0.000E+00  0.000E+00  0.000E+00  1.06381E+03  6.256E-01  1.000E+01  3.500E-02  1.209E+00
   1    6    8     5     1    1.0432E+01  2.2686E-01   1.0205E+01  0.000E+00  0.000E+00  0.000E+00  1.05868E+03  6.790E-01  1.542E+01  6.166E-02  1.226E+00
   1    7    7     5     2    1.0205E+01  2.7894E-01   9.9265E+00  0.000E+00  0.000E+00  0.000E+00  1.05417E+03  6.732E-01  1.519E+01  7.594E-02  1.224E+00
   1    8    7     5     3    9.9265E+00  1.9221E-01   9.7343E+00  0.000E+00  0.000E+00  0.000E+00  1.04992E+03  6.676E-01  1.497E+01  5.241E-02  1.223E+00
   1    8    6     5     4    9.7343E+00  1.3577E-01   9.5985E+00  0.000E+00  0.000E+00  0.000E+00  1.04691E+03  6.637E-01  1.482E+01  3.706E-02  1.221E+00
   1    9    6     6     1    9.5985E+00  2.2097E-01   9.3776E+00  0.000E+00  0.000E+00  0.000E+00  1.04341E+03  6.828E-01  1.200E+01  6.000E-02  1.228E+00
   1   10    7     6     2    9.3776E+00  2.2039E-01   9.1572E+00  0.000E+00  0.000E+00  0.000E+00  1.03885E+03  6.732E-01  1.200E+01  6.000E-02  1.224E+00
   1   11    7     6     3    9.1572E+00  2.1981E-01   8.9374E+00  0.000E+00  0.000E+00  0.000E+00  1.03430E+03  6.636E-01  1.200E+01  6.000E-02  1.221E+00
   1   12    7     6     4    8.9374E+00  2.1923E-01   8.7181E+00  0.000E+00  0.000E+00  0.000E+00  1.02974E+03  6.539E-01  1.200E+01  6.000E-02  1.218E+00
   1   13    7     6     5    8.7181E+00 -1.3200E-01   8.8501E+00  0.000E+00  0.000E+00  0.000E+00  1.02656E+03  6.519E-01  1.200E+01  2.400E-01 -1.833E-01
   1   14    9     7     1    1.5000E+02  1.3362E+00   1.4866E+02  0.000E+00  0.000E+00  0.000E+00  1.03987E+03  2.288E+00  5.529E+01  5.593E-01  7.963E-01
   1   13    8     7     2    1.4866E+02  1.8281E+00   1.4684E+02  0.000E+00  0.000E+00  0.000E+00  1.03478E+03  2.279E+00  5.526E+01  6.148E-01  9.912E-01
   1   13    7     7     3    1.4684E+02  1.4402E+00   1.4540E+02  0.000E+00  0.000E+00  0.000E+00  1.02969E+03  2.271E+00  5.522E+01  5.585E-01  8.596E-01
   1   13    6     8     1    1.5425E+02  7.9639E-01   1.5345E+02  0.000E+00  0.000E+00  0.000E+00  1.02472E+03  2.844E+00  4.123E+01  4.202E-01  6.318E-01
   1   13    5     8     2    1.5345E+02  7.3276E-02   1.5338E+02  0.000E+00  0.000E+00  0.000E+00  1.01847E+03  2.841E+00  4.119E+01  4.197E-01  5.819E-02
   1   13    4     8     3    1.5338E+02 -3.1583E+00   1.5653E+02  0.000E+00  0.000E+00  0.000E+00  1.01223E+03  2.851E+00  4.135E+01  4.213E+00 -2.499E-01
   1   13    3     8     4    1.5653E+02 -4.2259E+00   1.6076E+02  0.000E+00  0.000E+00  0.000E+00  1.00600E+03  2.877E+00  4.171E+01  4.251E+00 -3.314E-01
   1   13    2     8     5    1.6076E+02 -3.1549E+00   1.6391E+02  0.000E+00  0.000E+00  0.000E+00  9.99777E+02  2.902E+00  4.207E+01  4.287E+00 -2.453E-01
   1   13    1     8     6    1.6391E+02 -2.2654E+00   1.6618E+02  0.000E+00  0.000E+00  0.000E+00  9.94795E+02  2.920E+00  4.233E+01  2.588E+00 -2.917E-01
   1    8    6     9     1    5.0879E+01  0.0000E+00   5.0879E+01  0.000E+00  0.000E+00  0.000E+00  1.08476E+03  6.014E+00  4.000E+00  0.000E+00  3.005E+00
   1    8    5     9     2    5.0879E+01  0.0000E+00   5.0879E+01  0.000E+00  0.000E+00  0.000E+00  1.08426E+03  6.014E+00  4.000E+00  0.000E+00  3.005E+00



 UBDSV3 SAVING "           GW ET" ON UNIT  61 AT TIME STEP  1, STRESS PERIOD   8
 UBDSV3 SAVING "    UZF RECHARGE" ON UNIT  61 AT TIME STEP  1, STRESS PERIOD   8
 UBDSV3 SAVING " SURFACE LEAKAGE" ON UNIT  61 AT TIME STEP  1, STRESS PERIOD   8
 UBDSV3 SAVING "       HORT+DUNN" ON UNIT  61 AT TIME STEP  1, STRESS PERIOD   8
 UBDSV3 SAVING "  STORAGE CHANGE" ON UNIT  61 AT TIME STEP  1, STRESS PERIOD   8


UNSATURATED ZONE PACKAGE VOLUMETRIC BUDGET FOR  TIME STEP     1 STRESS PERIOD    8
  ------------------------------------------------------------------------------



     CUMULATIVE VOLUMES      L**3       RATES FOR THIS TIME STEP      L**3/T
     ------------------                 ------------------------

           IN:                                      IN:
           ---                                      ---
        INFILTRATION =   840809306.3169          INFILTRATION =         108.1544

          OUT:                                     OUT:
          ----                                     ----
              UZF ET =   109379426.7467                UZF ET =          60.8175
        UZF RECHARGE =   179664279.0098          UZF RECHARGE =          17.5019

            IN - OUT =   551765600.5604              IN - OUT =          29.8351

          STORAGE:                                 STORAGE:
          --------                                 --------
      STORAGE CHANGE =   551767720.0592        STORAGE CHANGE =          29.8351

 PERCENT DISCREPANCY IS DIFFERENCE BETWEEN IN-OUT MINUS CHANGE IN STORAGE
 DIVIDED BY THE AVERAGE OF IN AND OUT TIMES 100

 PERCENT DISCREPANCY =          -0.00     PERCENT DISCREPANCY =           0.00






 

        AG WELLS          PERIOD    8   STEP   1
 AG WELL      1   LAYER   1   ROW     6   COL     4   RATE    -9.40454    
 AG WELL      2   LAYER   1   ROW     6   COL     5   RATE    -9.40454    
 AG WELL      3   LAYER   1   ROW     7   COL     4   RATE    -9.40454    
 AG WELL      4   LAYER   1   ROW     7   COL     5   RATE    -9.40454    
 AG WELL      5   LAYER   1   ROW     8   COL     4   RATE    -9.40454    
 AG WELL      6   LAYER   1   ROW     8   COL     5   RATE    -9.40454    
 
 

   DIVERSION SEGMENTS     PERIOD    8   STEP   1
 SEGMENT      9   RATE     50.8787    
 
 

        SW IRRIGATION     PERIOD    8   STEP   1
 SEGMENT      9   ROW     6   COL     4   RATE     8.47995    
 SEGMENT      9   ROW     6   COL     5   RATE     8.47995    
 SEGMENT      9   ROW     7   COL     4   RATE     8.47995    
 SEGMENT      9   ROW     7   COL     5   RATE     8.47995    
 SEGMENT      9   ROW     8   COL     4   RATE     8.47995    
 SEGMENT      9   ROW     8   COL     5   RATE     8.47995    
 
 

        GW IRRIGATION     PERIOD    8   STEP   1
 AG WELL      1   ROW     6   COL     4   RATE     9.40454    
 AG WELL      2   ROW     6   COL     5   RATE     9.40454    
 AG WELL      3   ROW     7   COL     4   RATE     9.40454    
 AG WELL      4   ROW     7   COL     5   RATE     9.40454    
 AG WELL      5   ROW     8   COL     4   RATE     9.40454    
 AG WELL      6   ROW     8   COL     5   RATE     9.40454    
 
1
  VOLUMETRIC BUDGET FOR AGRICULTURAL FIELDS AT  END OF TIME STEP    1, STRESS PERIOD   8
  ------------------------------------------------------------------------------

     CUMULATIVE VOLUMES      L**3       RATES FOR THIS TIME STEP      L**3/T
     ------------------                 ------------------------

           IN:                                      IN:
           ---                                      ---
           AG WELLS      =   542281152.0000             AG WELLS      =          56.4273
      DIVERSION SEGMENTS =   285001216.0000        DIVERSION SEGMENTS =          50.8787
           GW IRRIGATION =           0.0000             GW IRRIGATION =           0.0000
           SW IRRIGATION =           0.0000             SW IRRIGATION =           0.0000
        SYSTEM LOSSES GW =           0.0000          SYSTEM LOSSES GW =           0.0000
        SYSTEM LOSSES SW =           0.0000          SYSTEM LOSSES SW =           0.0000

                TOTAL IN =   827282368.0000                  TOTAL IN =         107.3059

          OUT:                                     OUT:
          ----                                     ----
           AG WELLS      =           0.0000             AG WELLS      =           0.0000
      DIVERSION SEGMENTS =           0.0000        DIVERSION SEGMENTS =           0.0000
           GW IRRIGATION =   542281152.0000             GW IRRIGATION =          56.4273
           SW IRRIGATION =   285007040.0000             SW IRRIGATION =          50.8797
        SYSTEM LOSSES GW =           0.0000          SYSTEM LOSSES GW =           0.0000
        SYSTEM LOSSES SW =           0.0000          SYSTEM LOSSES SW =           0.0000

               TOTAL OUT =   827288192.0000                 TOTAL OUT =         107.3069

                IN - OUT =       -5824.0000                  IN - OUT =      -1.0147E-03

     PERCENT DISCREPANCY =          -0.00         PERCENT DISCREPANCY =          -0.00



1
  VOLUMETRIC BUDGET FOR ENTIRE MODEL AT END OF TIME STEP    1, STRESS PERIOD   8
  ------------------------------------------------------------------------------

     CUMULATIVE VOLUMES      L**3       RATES FOR THIS TIME STEP      L**3/T
     ------------------                 ------------------------

           IN:                                      IN:
           ---                                      ---
             STORAGE     =   641594688.0000               STORAGE     =          53.1285
       CONSTANT HEAD     =           0.0000         CONSTANT HEAD     =           0.0000
     HEAD DEP BOUNDS     =     4558441.5000       HEAD DEP BOUNDS     =           0.2858
      STREAM LEAKAGE     =   193319824.0000        STREAM LEAKAGE     =          12.1276
        UZF RECHARGE     =   179664288.0000          UZF RECHARGE     =          17.5019
               GW ET     =           0.0000                 GW ET     =           0.0000
     SURFACE LEAKAGE     =           0.0000       SURFACE LEAKAGE     =           0.0000
           AG WELLS      =           0.0000             AG WELLS      =           0.0000

                TOTAL IN =  1019137280.0000                  TOTAL IN =          83.0438

          OUT:                                     OUT:
          ----                                     ----
             STORAGE     =   300257920.0000               STORAGE     =          13.3959
       CONSTANT HEAD     =           0.0000         CONSTANT HEAD     =           0.0000
     HEAD DEP BOUNDS     =     4629383.0000       HEAD DEP BOUNDS     =           0.2915
      STREAM LEAKAGE     =   171902992.0000        STREAM LEAKAGE     =          12.9364
        UZF RECHARGE     =           0.0000          UZF RECHARGE     =           0.0000
               GW ET     =       56916.5898                 GW ET     =           0.0000
     SURFACE LEAKAGE     =           0.0000       SURFACE LEAKAGE     =           0.0000
           AG WELLS      =   542281152.0000             AG WELLS      =          56.4273

               TOTAL OUT =  1019128320.0000                 TOTAL OUT =          83.0510

                IN - OUT =        8960.0000                  IN - OUT =      -7.1716E-03

     PERCENT DISCREPANCY =           0.00         PERCENT DISCREPANCY =          -0.01






         TIME SUMMARY AT END OF TIME STEP    1 IN STRESS PERIOD    8
                    SECONDS     MINUTES      HOURS       DAYS        YEARS
                    -----------------------------------------------------------
   TIME STEP LENGTH  87667.      1461.1      24.352      1.0147     2.77799E-03
 STRESS PERIOD TIME  87667.      1461.1      24.352      1.0147     2.77799E-03
         TOTAL TIME 1.59541E+07 2.65901E+05  4431.7      184.65     0.50555    
1
 
 SOLVING FOR HEAD 
                                                   Max.-Head-Change                         Max.-Flux-Residual
  Residual-Control   Outer-Iter.   Inner-Iter.     Column Row Layer    Maximum-Head-Change  Column Row Layer    Maximum-Flux-Residual          L2-NORM 
          0                 1           2             4    7     1       0.1886217718E+00       4    7    1         0.9992555851E+01      0.1708621531E+02
          0                 2           2             4    7     1       0.7146949357E-01       4    7    1         0.3788278040E+01      0.6149724481E+01
          0                 3           2             5    8     1      -0.9099009780E-01       5    8    1        -0.5019047112E+01      0.1097392406E+02
          0                 4           2             4    7     1       0.6397455715E-01       4    6    1         0.3538343850E+01      0.8300142705E+01
          0                 5           2             4    7     1      -0.1363490715E+01       5    8    1        -0.7754132689E+02      0.1896565481E+03
          0                 6           2             4    7     1      -0.1427006110E+00       4    7    1        -0.8234258073E+01      0.1279032729E+02
          0                 7           2             5    7     1      -0.8692360976E-01       5    8    1        -0.5023186984E+01      0.1216971479E+02
          0                 8           2             5    8     1      -0.3372125224E-02       5    8    1        -0.2157117819E+00      0.2596776541E+00
          0                 9           1             5    8     1      -0.1391223964E-03       5    8    1        -0.8846791839E-02      0.9118286686E-02
          0                10           1             5    8     1      -0.5738282295E-05       5    8    1        -0.3641202852E-03      0.3660905497E-03

    ------------------------------------------------
       NWT REQUIRED           10 OUTER ITERATIONS 
       AND A TOTAL OF         18 INNER ITERATIONS.
    ------------------------------------------------

 NO OUTPUT CONTROL FOR STRESS PERIOD    8   TIME STEP    2
 
 SOLVING FOR HEAD 
                                                   Max.-Head-Change                         Max.-Flux-Residual
  Residual-Control   Outer-Iter.   Inner-Iter.     Column Row Layer    Maximum-Head-Change  Column Row Layer    Maximum-Flux-Residual          L2-NORM 
          0                 1           2             4    6     1       0.9703834710E-01       4    6    1         0.5195741476E+01      0.8145986309E+01
          0                 2           2             4    7     1      -0.2696649874E+00       4    6    1        -0.1455927697E+02      0.3507141160E+02
          0                 3           2             4    7     1       0.1720798736E+00       4    6    1         0.9498893256E+01      0.2322222243E+02
          0                 4           2             4    7     1      -0.2544497610E+00       4    6    1        -0.1442819426E+02      0.3533979637E+02
          0                 5           2             4    7     1       0.3137086048E-02       5    6    1         0.1828196867E+00      0.4478238324E+00
          0                 6           1             4    7     1       0.4613779223E-04       5    8    1         0.2693520239E-02      0.6592797724E-02

    ------------------------------------------------
       NWT REQUIRED            6 OUTER ITERATIONS 
       AND A TOTAL OF         11 INNER ITERATIONS.
    ------------------------------------------------

 NO OUTPUT CONTROL FOR STRESS PERIOD    8   TIME STEP    3
 
 SOLVING FOR HEAD 
                                                   Max.-Head-Change                         Max.-Flux-Residual
  Residual-Control   Outer-Iter.   Inner-Iter.     Column Row Layer    Maximum-Head-Change  Column Row Layer    Maximum-Flux-Residual          L2-NORM 
          0                 1           2             4    6     1       0.1009539652E+00       4    6    1         0.5404700975E+01      0.8565224778E+01
          0                 2           2             4    7     1      -0.2696834840E+00       4    6    1        -0.1458017379E+02      0.3515263522E+02
          0                 3           2             4    7     1       0.1720811226E+00       4    6    1         0.9500357805E+01      0.2322788107E+02
          0                 4           2             4    7     1      -0.2544497740E+00       4    6    1        -0.1442825429E+02      0.3534000510E+02
          0                 5           2             4    7     1       0.3137086256E-02       4    6    1         0.1828155841E+00      0.4478331575E+00
          0                 6           1             4    7     1       0.4613779525E-04       5    8    1         0.2693550612E-02      0.6595440308E-02

    ------------------------------------------------
       NWT REQUIRED            6 OUTER ITERATIONS 
       AND A TOTAL OF         11 INNER ITERATIONS.
    ------------------------------------------------

 NO OUTPUT CONTROL FOR STRESS PERIOD    8   TIME STEP    4
 
 SOLVING FOR HEAD 
                                                   Max.-Head-Change                         Max.-Flux-Residual
  Residual-Control   Outer-Iter.   Inner-Iter.     Column Row Layer    Maximum-Head-Change  Column Row Layer    Maximum-Flux-Residual          L2-NORM 
          0                 1           2             4    6     1       0.1047662338E+00       4    6    1         0.5608185633E+01      0.9103598824E+01
          0                 2           2             4    7     1      -0.2697218905E+00       4    6    1        -0.1460052276E+02      0.3523098544E+02
          0                 3           2             4    7     1       0.1720837973E+00       4    6    1         0.9501783945E+01      0.2323333018E+02
          0                 4           2             4    7     1      -0.2544499574E+00       4    6    1        -0.1442831274E+02      0.3534020552E+02
          0                 5           2             4    7     1       0.3137088561E-02       5    7    1         0.1828166083E+00      0.4478423494E+00
          0                 6           1             4    7     1       0.4613782908E-04       5    8    1         0.2693579335E-02      0.6598077531E-02

    ------------------------------------------------
       NWT REQUIRED            6 OUTER ITERATIONS 
       AND A TOTAL OF         11 INNER ITERATIONS.
    ------------------------------------------------

 OUTPUT CONTROL FOR STRESS PERIOD    8   TIME STEP    5
    PRINT BUDGET
    SAVE BUDGET
 UBDSV1 SAVING "         STORAGE" ON UNIT 102 AT TIME STEP  5, STRESS PERIOD   8
 UBDSV2 SAVING "   CONSTANT HEAD" ON UNIT 102 AT TIME STEP  5, STRESS PERIOD   8
 UBDSV1 SAVING "FLOW RIGHT FACE " ON UNIT 102 AT TIME STEP  5, STRESS PERIOD   8
 UBDSV1 SAVING "FLOW FRONT FACE " ON UNIT 102 AT TIME STEP  5, STRESS PERIOD   8

  HEAD DEP BOUNDS   PERIOD    8   STEP     5
 BOUNDARY      1   LAYER   1   ROW    13   COL     1   RATE   -0.290755    
 BOUNDARY      2   LAYER   1   ROW    14   COL     9   RATE    0.285786    



 STREAM LISTING     PERIOD      8   STEP        5

 LAYER ROW COL. STREAM  RCH.  FLOW INTO     FLOW TO   FLOW OUT OF   OVRLND.     DIRECT     STREAM       STREAM     STREAM     STREAM   STREAMBED  STREAMBED
                SEG.NO.  NO.  STRM. RCH.    AQUIFER    STRM. RCH.    RUNOFF     PRECIP       ET          HEAD       DEPTH      WIDTH   CONDCTNC.   GRADIENT

   1    1    1     1     1    5.6250E+01  3.5875E-01   5.5891E+01  0.000E+00  0.000E+00  0.000E+00  1.09453E+03  1.479E+00  1.780E+01  8.010E-02  1.493E+00
   1    2    2     1     2    5.5891E+01  5.5550E-01   5.5336E+01  0.000E+00  0.000E+00  0.000E+00  1.08953E+03  1.473E+00  1.774E+01  1.242E-01  1.491E+00
   1    3    3     1     3    5.5336E+01  4.7368E-01   5.4862E+01  0.000E+00  0.000E+00  0.000E+00  1.08389E+03  1.467E+00  1.767E+01  1.060E-01  1.489E+00
   1    3    4     1     4    5.4862E+01  4.3613E-01   5.4426E+01  0.000E+00  0.000E+00  0.000E+00  1.07887E+03  1.461E+00  1.762E+01  9.777E-02  1.487E+00
   1    4    5     2     1    5.2426E+01  3.8056E-01   5.2046E+01  0.000E+00  0.000E+00  0.000E+00  1.07381E+03  1.879E+00  1.200E+01  7.800E-02  1.626E+00
   1    5    6     2     2    5.2046E+01  2.9230E-01   5.1753E+01  0.000E+00  0.000E+00  0.000E+00  1.06838E+03  1.872E+00  1.200E+01  6.000E-02  1.624E+00
   1    6    6     2     3    5.1753E+01  2.9192E-01   5.1461E+01  0.000E+00  0.000E+00  0.000E+00  1.06366E+03  1.865E+00  1.200E+01  6.000E-02  1.622E+00
   1    7    6     2     4    5.1461E+01  2.9154E-01   5.1170E+01  0.000E+00  0.000E+00  0.000E+00  1.05893E+03  1.859E+00  1.200E+01  6.000E-02  1.620E+00
   1    8    6     2     5    5.1170E+01  2.9116E-01   5.0879E+01  0.000E+00  0.000E+00  0.000E+00  1.05421E+03  1.853E+00  1.200E+01  6.000E-02  1.618E+00
   1    3    5     3     1    2.0000E+00  2.8252E-01   1.7175E+00  0.000E+00  0.000E+00  0.000E+00  1.07555E+03  1.909E+00  9.636E+00  7.227E-02  1.955E+00
   1    3    6     3     2    1.7175E+00  2.4905E-01   1.4684E+00  0.000E+00  0.000E+00  0.000E+00  1.07264E+03  1.727E+00  8.909E+00  6.682E-02  1.864E+00
   1    3    7     3     3    1.4684E+00  1.9718E-01   1.2712E+00  0.000E+00  0.000E+00  0.000E+00  1.06987E+03  1.555E+00  8.218E+00  5.547E-02  1.777E+00
   1    4    8     3     4    1.2712E+00  2.2567E-01   1.0456E+00  0.000E+00  0.000E+00  0.000E+00  1.06682E+03  1.364E+00  7.455E+00  6.709E-02  1.682E+00
   1    5    8     3     5    1.0456E+00  1.5790E-01   8.8768E-01  0.000E+00  0.000E+00  0.000E+00  1.06362E+03  1.164E+00  6.655E+00  4.991E-02  1.582E+00
   1    6    8     3     6    8.8768E-01  5.5980E-02   8.3170E-01  0.000E+00  0.000E+00  0.000E+00  1.06158E+03  1.036E+00  6.145E+00  1.844E-02  1.518E+00
   1    5   10     4     1    1.0000E+01  9.0919E-02   9.9091E+00  0.000E+00  0.000E+00  0.000E+00  1.07836E+03  6.368E-01  1.000E+01  2.500E-02  1.212E+00
   1    5    9     4     2    9.9091E+00  1.8158E-01   9.7275E+00  0.000E+00  0.000E+00  0.000E+00  1.07154E+03  6.315E-01  1.000E+01  5.000E-02  1.211E+00
   1    6    8     4     3    9.7275E+00  1.2689E-01   9.6006E+00  0.000E+00  0.000E+00  0.000E+00  1.06381E+03  6.256E-01  1.000E+01  3.500E-02  1.209E+00
   1    6    8     5     1    1.0432E+01  2.2686E-01   1.0205E+01  0.000E+00  0.000E+00  0.000E+00  1.05868E+03  6.790E-01  1.542E+01  6.166E-02  1.226E+00
   1    7    7     5     2    1.0205E+01  2.7894E-01   9.9265E+00  0.000E+00  0.000E+00  0.000E+00  1.05417E+03  6.732E-01  1.519E+01  7.594E-02  1.224E+00
   1    8    7     5     3    9.9265E+00  1.9221E-01   9.7343E+00  0.000E+00  0.000E+00  0.000E+00  1.04992E+03  6.676E-01  1.497E+01  5.241E-02  1.223E+00
   1    8    6     5     4    9.7343E+00  1.3577E-01   9.5985E+00  0.000E+00  0.000E+00  0.000E+00  1.04691E+03  6.637E-01  1.482E+01  3.706E-02  1.221E+00
   1    9    6     6     1    9.5985E+00  2.2097E-01   9.3776E+00  0.000E+00  0.000E+00  0.000E+00  1.04341E+03  6.828E-01  1.200E+01  6.000E-02  1.228E+00
   1   10    7     6     2    9.3776E+00  2.2039E-01   9.1572E+00  0.000E+00  0.000E+00  0.000E+00  1.03885E+03  6.732E-01  1.200E+01  6.000E-02  1.224E+00
   1   11    7     6     3    9.1572E+00  2.1981E-01   8.9374E+00  0.000E+00  0.000E+00  0.000E+00  1.03430E+03  6.636E-01  1.200E+01  6.000E-02  1.221E+00
   1   12    7     6     4    8.9374E+00  2.1923E-01   8.7181E+00  0.000E+00  0.000E+00  0.000E+00  1.02974E+03  6.539E-01  1.200E+01  6.000E-02  1.218E+00
   1   13    7     6     5    8.7181E+00 -1.3051E-01   8.8486E+00  0.000E+00  0.000E+00  0.000E+00  1.02656E+03  6.519E-01  1.200E+01  2.400E-01 -1.813E-01
   1   14    9     7     1    1.5000E+02  1.3362E+00   1.4866E+02  0.000E+00  0.000E+00  0.000E+00  1.03987E+03  2.288E+00  5.529E+01  5.593E-01  7.964E-01
   1   13    8     7     2    1.4866E+02  1.8280E+00   1.4684E+02  0.000E+00  0.000E+00  0.000E+00  1.03478E+03  2.279E+00  5.526E+01  6.148E-01  9.911E-01
   1   13    7     7     3    1.4684E+02  1.4437E+00   1.4539E+02  0.000E+00  0.000E+00  0.000E+00  1.02969E+03  2.271E+00  5.522E+01  5.585E-01  8.617E-01
   1   13    6     8     1    1.5424E+02  7.9963E-01   1.5344E+02  0.000E+00  0.000E+00  0.000E+00  1.02472E+03  2.844E+00  4.123E+01  4.202E-01  6.344E-01
   1   13    5     8     2    1.5344E+02  7.5992E-02   1.5337E+02  0.000E+00  0.000E+00  0.000E+00  1.01847E+03  2.841E+00  4.119E+01  4.197E-01  6.035E-02
   1   13    4     8     3    1.5337E+02 -3.0117E+00   1.5638E+02  0.000E+00  0.000E+00  0.000E+00  1.01223E+03  2.851E+00  4.134E+01  4.212E+00 -2.383E-01
   1   13    3     8     4    1.5638E+02 -4.1009E+00   1.6048E+02  0.000E+00  0.000E+00  0.000E+00  1.00600E+03  2.875E+00  4.169E+01  4.248E+00 -3.218E-01
   1   13    2     8     5    1.6048E+02 -3.0160E+00   1.6349E+02  0.000E+00  0.000E+00  0.000E+00  9.99774E+02  2.899E+00  4.204E+01  4.284E+00 -2.347E-01
   1   13    1     8     6    1.6349E+02 -2.2231E+00   1.6572E+02  0.000E+00  0.000E+00  0.000E+00  9.94792E+02  2.917E+00  4.229E+01  2.586E+00 -2.866E-01
   1    8    6     9     1    5.0879E+01  0.0000E+00   5.0879E+01  0.000E+00  0.000E+00  0.000E+00  1.08476E+03  6.014E+00  4.000E+00  0.000E+00  3.005E+00
   1    8    5     9     2    5.0879E+01  0.0000E+00   5.0879E+01  0.000E+00  0.000E+00  0.000E+00  1.08426E+03  6.014E+00  4.000E+00  0.000E+00  3.005E+00



 UBDSV3 SAVING "           GW ET" ON UNIT  61 AT TIME STEP  5, STRESS PERIOD   8
 UBDSV3 SAVING "    UZF RECHARGE" ON UNIT  61 AT TIME STEP  5, STRESS PERIOD   8
 UBDSV3 SAVING " SURFACE LEAKAGE" ON UNIT  61 AT TIME STEP  5, STRESS PERIOD   8
 UBDSV3 SAVING "       HORT+DUNN" ON UNIT  61 AT TIME STEP  5, STRESS PERIOD   8
 UBDSV3 SAVING "  STORAGE CHANGE" ON UNIT  61 AT TIME STEP  5, STRESS PERIOD   8


UNSATURATED ZONE PACKAGE VOLUMETRIC BUDGET FOR  TIME STEP     5 STRESS PERIOD    8
  ------------------------------------------------------------------------------



     CUMULATIVE VOLUMES      L**3       RATES FOR THIS TIME STEP      L**3/T
     ------------------                 ------------------------

           IN:                                      IN:
           ---                                      ---
        INFILTRATION =   932459659.3004          INFILTRATION =         169.3248

          OUT:                                     OUT:
          ----                                     ----
              UZF ET =   130706095.7302                UZF ET =          60.8175
        UZF RECHARGE =   179664279.0098          UZF RECHARGE =       0.0000E+00

            IN - OUT =   622089284.5604              IN - OUT =         108.5073

          STORAGE:                                 STORAGE:
          --------                                 --------
      STORAGE CHANGE =   622091401.1941        STORAGE CHANGE =         108.5073

 PERCENT DISCREPANCY IS DIFFERENCE BETWEEN IN-OUT MINUS CHANGE IN STORAGE
 DIVIDED BY THE AVERAGE OF IN AND OUT TIMES 100

 PERCENT DISCREPANCY =          -0.00     PERCENT DISCREPANCY =           0.00






 

        AG WELLS          PERIOD    8   STEP   5
 AG WELL      1   LAYER   1   ROW     6   COL     4   RATE    -19.5996    
 AG WELL      2   LAYER   1   ROW     6   COL     5   RATE    -19.5996    
 AG WELL      3   LAYER   1   ROW     7   COL     4   RATE    -19.5996    
 AG WELL      4   LAYER   1   ROW     7   COL     5   RATE    -19.5996    
 AG WELL      5   LAYER   1   ROW     8   COL     4   RATE    -19.5996    
 AG WELL      6   LAYER   1   ROW     8   COL     5   RATE    -19.5996    
 
 

   DIVERSION SEGMENTS     PERIOD    8   STEP   5
 SEGMENT      9   RATE     50.8787    
 
 

        SW IRRIGATION     PERIOD    8   STEP   5
 SEGMENT      9   ROW     6   COL     4   RATE     8.47995    
 SEGMENT      9   ROW     6   COL     5   RATE     8.47995    
 SEGMENT      9   ROW     7   COL     4   RATE     8.47995    
 SEGMENT      9   ROW     7   COL     5   RATE     8.47995    
 SEGMENT      9   ROW     8   COL     4   RATE     8.47995    
 SEGMENT      9   ROW     8   COL     5   RATE     8.47995    
 
 

        GW IRRIGATION     PERIOD    8   STEP   5
 AG WELL      1   ROW     6   COL     4   RATE     19.5996    
 AG WELL      2   ROW     6   COL     5   RATE     19.5996    
 AG WELL      3   ROW     7   COL     4   RATE     19.5996    
 AG WELL      4   ROW     7   COL     5   RATE     19.5996    
 AG WELL      5   ROW     8   COL     4   RATE     19.5996    
 AG WELL      6   ROW     8   COL     5   RATE     19.5996    
 
1
  VOLUMETRIC BUDGET FOR AGRICULTURAL FIELDS AT  END OF TIME STEP    5, STRESS PERIOD   8
  ------------------------------------------------------------------------------

     CUMULATIVE VOLUMES      L**3       RATES FOR THIS TIME STEP      L**3/T
     ------------------                 ------------------------

           IN:                                      IN:
           ---                                      ---
           AG WELLS      =   615792448.0000             AG WELLS      =         117.5976
      DIVERSION SEGMENTS =   302842624.0000        DIVERSION SEGMENTS =          50.8787
           GW IRRIGATION =           0.0000             GW IRRIGATION =           0.0000
           SW IRRIGATION =           0.0000             SW IRRIGATION =           0.0000
        SYSTEM LOSSES GW =           0.0000          SYSTEM LOSSES GW =           0.0000
        SYSTEM LOSSES SW =           0.0000          SYSTEM LOSSES SW =           0.0000

                TOTAL IN =   918635072.0000                  TOTAL IN =         168.4763

          OUT:                                     OUT:
          ----                                     ----
           AG WELLS      =           0.0000             AG WELLS      =           0.0000
      DIVERSION SEGMENTS =           0.0000        DIVERSION SEGMENTS =           0.0000
           GW IRRIGATION =   615792448.0000             GW IRRIGATION =         117.5976
           SW IRRIGATION =   302848832.0000             SW IRRIGATION =          50.8797
        SYSTEM LOSSES GW =           0.0000          SYSTEM LOSSES GW =           0.0000
        SYSTEM LOSSES SW =           0.0000          SYSTEM LOSSES SW =           0.0000

               TOTAL OUT =   918641280.0000                 TOTAL OUT =         168.4773

                IN - OUT =       -6208.0000                  IN - OUT =      -1.0071E-03

     PERCENT DISCREPANCY =          -0.00         PERCENT DISCREPANCY =          -0.00



1
  VOLUMETRIC BUDGET FOR ENTIRE MODEL AT END OF TIME STEP    5, STRESS PERIOD   8
  ------------------------------------------------------------------------------

     CUMULATIVE VOLUMES      L**3       RATES FOR THIS TIME STEP      L**3/T
     ------------------                 ------------------------

           IN:                                      IN:
           ---                                      ---
             STORAGE     =   716011840.0000               STORAGE     =         118.8060
       CONSTANT HEAD     =           0.0000         CONSTANT HEAD     =           0.0000
     HEAD DEP BOUNDS     =     4658657.5000       HEAD DEP BOUNDS     =           0.2858
      STREAM LEAKAGE     =   197574608.0000        STREAM LEAKAGE     =          12.1369
        UZF RECHARGE     =   179664288.0000          UZF RECHARGE     =           0.0000
               GW ET     =           0.0000                 GW ET     =           0.0000
     SURFACE LEAKAGE     =           0.0000       SURFACE LEAKAGE     =           0.0000
           AG WELLS      =           0.0000             AG WELLS      =           0.0000

                TOTAL IN =  1097909376.0000                  TOTAL IN =         131.2287

          OUT:                                     OUT:
          ----                                     ----
             STORAGE     =   300983552.0000               STORAGE     =           0.8579
       CONSTANT HEAD     =           0.0000         CONSTANT HEAD     =           0.0000
     HEAD DEP BOUNDS     =     4731430.0000       HEAD DEP BOUNDS     =           0.2908
      STREAM LEAKAGE     =   176335984.0000        STREAM LEAKAGE     =          12.4822
        UZF RECHARGE     =           0.0000          UZF RECHARGE     =           0.0000
               GW ET     =       56916.5898                 GW ET     =           0.0000
     SURFACE LEAKAGE     =           0.0000       SURFACE LEAKAGE     =           0.0000
           AG WELLS      =   615792448.0000             AG WELLS      =         117.5976

               TOTAL OUT =  1097900288.0000                 TOTAL OUT =         131.2285

                IN - OUT =        9088.0000                  IN - OUT =       2.4414E-04

     PERCENT DISCREPANCY =           0.00         PERCENT DISCREPANCY =           0.00






         TIME SUMMARY AT END OF TIME STEP    5 IN STRESS PERIOD    8
                    SECONDS     MINUTES      HOURS       DAYS        YEARS
                    -----------------------------------------------------------
   TIME STEP LENGTH  87667.      1461.1      24.352      1.0147     2.77799E-03
 STRESS PERIOD TIME 4.38333E+05  7305.6      121.76      5.0733     1.38899E-02
         TOTAL TIME 1.63048E+07 2.71746E+05  4529.1      188.71     0.51667    
1
 
 SOLVING FOR HEAD 
                                                   Max.-Head-Change                         Max.-Flux-Residual
  Residual-Control   Outer-Iter.   Inner-Iter.     Column Row Layer    Maximum-Head-Change  Column Row Layer    Maximum-Flux-Residual          L2-NORM 
          0                 1           2             4    6     1       0.1084772366E+00       4    6    1         0.5806292892E+01      0.9720984831E+01
          0                 2           2             4    7     1      -0.2697786615E+00       4    6    1        -0.1462033366E+02      0.3530657956E+02
          0                 3           2             4    7     1       0.1720877874E+00       4    6    1         0.9503085818E+01      0.2323857771E+02
          0                 4           2             4    7     1      -0.2544502990E+00       4    6    1        -0.1442830562E+02      0.3534039725E+02
          0                 5           2             4    7     1       0.3137092804E-02       5    7    1         0.1828177090E+00      0.4478489671E+00
          0                 6           1             4    7     1       0.4613789159E-04       5    8    1         0.2693606452E-02      0.6600658058E-02

    ------------------------------------------------
       NWT REQUIRED            6 OUTER ITERATIONS 
       AND A TOTAL OF         11 INNER ITERATIONS.
    ------------------------------------------------

 NO OUTPUT CONTROL FOR STRESS PERIOD    8   TIME STEP    6
 
 SOLVING FOR HEAD 
                                                   Max.-Head-Change                         Max.-Flux-Residual
  Residual-Control   Outer-Iter.   Inner-Iter.     Column Row Layer    Maximum-Head-Change  Column Row Layer    Maximum-Flux-Residual          L2-NORM 
          0                 1           2             4    6     1       0.1120893506E+00       4    6    1         0.5999138301E+01      0.1038682368E+02
          0                 2           2             4    7     1      -0.2698523790E+00       4    6    1        -0.1463961810E+02      0.3537952866E+02
          0                 3           2             4    7     1       0.1720929921E+00       4    6    1         0.9504446527E+01      0.2324361242E+02
          0                 4           2             4    7     1      -0.2544507876E+00       4    6    1        -0.1442836225E+02      0.3534056202E+02
          0                 5           2             4    7     1       0.3137098849E-02       4    7    1         0.1828081554E+00      0.4478571133E+00
          0                 6           1             4    7     1       0.4613797963E-04       5    8    1         0.2693632064E-02      0.6605131973E-02

    ------------------------------------------------
       NWT REQUIRED            6 OUTER ITERATIONS 
       AND A TOTAL OF         11 INNER ITERATIONS.
    ------------------------------------------------

 NO OUTPUT CONTROL FOR STRESS PERIOD    8   TIME STEP    7
 
 SOLVING FOR HEAD 
                                                   Max.-Head-Change                         Max.-Flux-Residual
  Residual-Control   Outer-Iter.   Inner-Iter.     Column Row Layer    Maximum-Head-Change  Column Row Layer    Maximum-Flux-Residual          L2-NORM 
          0                 1           2             4    6     1       0.1156047999E+00       4    6    1         0.6186830640E+01      0.1107904000E+02
          0                 2           2             4    7     1      -0.2699416817E+00       4    6    1        -0.1465838701E+02      0.3544994379E+02
          0                 3           2             4    7     1       0.1720993143E+00       4    6    1         0.9505769928E+01      0.2324852766E+02
          0                 4           2             4    7     1      -0.2544514124E+00       4    6    1        -0.1442841728E+02      0.3534076539E+02
          0                 5           2             4    7     1       0.3137106602E-02       4    7    1         0.1828083044E+00      0.4478609573E+00
          0                 6           1             4    7     1       0.4613809400E-04       5    8    1         0.2693704287E-02      0.6605214421E-02

    ------------------------------------------------
       NWT REQUIRED            6 OUTER ITERATIONS 
       AND A TOTAL OF         11 INNER ITERATIONS.
    ------------------------------------------------

 NO OUTPUT CONTROL FOR STRESS PERIOD    8   TIME STEP    8
 
 SOLVING FOR HEAD 
                                                   Max.-Head-Change                         Max.-Flux-Residual
  Residual-Control   Outer-Iter.   Inner-Iter.     Column Row Layer    Maximum-Head-Change  Column Row Layer    Maximum-Flux-Residual          L2-NORM 
          0                 1           2             4    6     1       0.1190261740E+00       4    6    1         0.6369500006E+01      0.1178211809E+02
          0                 2           2             4    7     1      -0.2700453021E+00       4    6    1        -0.1467665342E+02      0.3551792943E+02
          0                 3           2             4    7     1       0.1721066637E+00       4    6    1         0.9507057204E+01      0.2325326713E+02
          0                 4           2             4    7     1      -0.2544521633E+00       4    6    1        -0.1442847079E+02      0.3534096137E+02
          0                 5           2             4    7     1       0.3137115871E-02       4    7    1         0.1828084833E+00      0.4478611150E+00
          0                 6           1             4    7     1       0.4613823044E-04       5    8    1         0.2693677858E-02      0.6605178296E-02

    ------------------------------------------------
       NWT REQUIRED            6 OUTER ITERATIONS 
       AND A TOTAL OF         11 INNER ITERATIONS.
    ------------------------------------------------

 NO OUTPUT CONTROL FOR STRESS PERIOD    8   TIME STEP    9
 
 SOLVING FOR HEAD 
                                                   Max.-Head-Change                         Max.-Flux-Residual
  Residual-Control   Outer-Iter.   Inner-Iter.     Column Row Layer    Maximum-Head-Change  Column Row Layer    Maximum-Flux-Residual          L2-NORM 
          0                 1           2             5    8     1       0.1114364588E+01       5    8    1         0.6144948550E+02      0.6256075564E+02
          0                 2           2             5    8     1       0.3635270252E+00       5    8    1         0.2050326040E+02      0.3843451604E+02
          0                 3           2             5    8     1       0.3623761771E+00       5    8    1         0.1971577785E+02      0.2898081731E+02
          0                 4           2             4    7     1      -0.2543638829E+00       4    6    1        -0.1442852280E+02      0.3236748578E+02
          0                 5           2             5    8     1      -0.3270528690E-01       5    8    1        -0.1861748795E+01      0.1905538190E+01
          0                 6           2             5    8     1      -0.1875227323E-01       5    8    1        -0.1064319742E+01      0.1064330596E+01
          0                 7           2             5    8     1      -0.1075195157E-01       5    8    1        -0.6101805989E+00      0.6101859556E+00
          0                 8           2             5    8     1      -0.6164785798E-02       5    8    1        -0.3498496040E+00      0.3498531524E+00
          0                 9           1             5    8     1      -0.3534645439E-02       5    8    1        -0.2005878404E+00      0.2005898956E+00
          0                10           1             5    8     1      -0.2026612943E-02       5    8    1        -0.1150072636E+00      0.1150084429E+00
                                                   Max.-Head-Change                         Max.-Flux-Residual
  Residual-Control   Outer-Iter.   Inner-Iter.     Column Row Layer    Maximum-Head-Change  Column Row Layer    Maximum-Flux-Residual          L2-NORM 
          0                11           1             5    8     1      -0.1161964370E-02       5    8    1        -0.6593911096E-01      0.6593978715E-01
          0                12           1             5    8     1      -0.6662110418E-03       5    8    1        -0.3780576011E-01      0.3780614780E-01
          0                13           1             5    8     1      -0.3819687582E-03       5    8    1        -0.2167553831E-01      0.2167576064E-01
          0                14           1             5    8     1      -0.2189983538E-03       5    8    1        -0.1242735826E-01      0.1242748576E-01
          0                15           1             5    8     1      -0.1255598662E-03       5    8    1        -0.7124997918E-02      0.7125071011E-02
          0                16           1             5    8     1      -0.7198762121E-04       5    8    1        -0.4084958558E-02      0.4085000490E-02

    ------------------------------------------------
       NWT REQUIRED           16 OUTER ITERATIONS 
       AND A TOTAL OF         24 INNER ITERATIONS.
    ------------------------------------------------

 OUTPUT CONTROL FOR STRESS PERIOD    8   TIME STEP   10
    PRINT BUDGET
    SAVE BUDGET
 UBDSV1 SAVING "         STORAGE" ON UNIT 102 AT TIME STEP 10, STRESS PERIOD   8
 UBDSV2 SAVING "   CONSTANT HEAD" ON UNIT 102 AT TIME STEP 10, STRESS PERIOD   8
 UBDSV1 SAVING "FLOW RIGHT FACE " ON UNIT 102 AT TIME STEP 10, STRESS PERIOD   8
 UBDSV1 SAVING "FLOW FRONT FACE " ON UNIT 102 AT TIME STEP 10, STRESS PERIOD   8

  HEAD DEP BOUNDS   PERIOD    8   STEP    10
 BOUNDARY      1   LAYER   1   ROW    13   COL     1   RATE   -0.290015    
 BOUNDARY      2   LAYER   1   ROW    14   COL     9   RATE    0.285788    



 STREAM LISTING     PERIOD      8   STEP       10

 LAYER ROW COL. STREAM  RCH.  FLOW INTO     FLOW TO   FLOW OUT OF   OVRLND.     DIRECT     STREAM       STREAM     STREAM     STREAM   STREAMBED  STREAMBED
                SEG.NO.  NO.  STRM. RCH.    AQUIFER    STRM. RCH.    RUNOFF     PRECIP       ET          HEAD       DEPTH      WIDTH   CONDCTNC.   GRADIENT

   1    1    1     1     1    5.6250E+01  3.5875E-01   5.5891E+01  0.000E+00  0.000E+00  0.000E+00  1.09453E+03  1.479E+00  1.780E+01  8.010E-02  1.493E+00
   1    2    2     1     2    5.5891E+01  5.5550E-01   5.5336E+01  0.000E+00  0.000E+00  0.000E+00  1.08953E+03  1.473E+00  1.774E+01  1.242E-01  1.491E+00
   1    3    3     1     3    5.5336E+01  4.7368E-01   5.4862E+01  0.000E+00  0.000E+00  0.000E+00  1.08389E+03  1.467E+00  1.767E+01  1.060E-01  1.489E+00
   1    3    4     1     4    5.4862E+01  4.3613E-01   5.4426E+01  0.000E+00  0.000E+00  0.000E+00  1.07887E+03  1.461E+00  1.762E+01  9.777E-02  1.487E+00
   1    4    5     2     1    5.2426E+01  3.8056E-01   5.2046E+01  0.000E+00  0.000E+00  0.000E+00  1.07381E+03  1.879E+00  1.200E+01  7.800E-02  1.626E+00
   1    5    6     2     2    5.2046E+01  2.9230E-01   5.1753E+01  0.000E+00  0.000E+00  0.000E+00  1.06838E+03  1.872E+00  1.200E+01  6.000E-02  1.624E+00
   1    6    6     2     3    5.1753E+01  2.9192E-01   5.1461E+01  0.000E+00  0.000E+00  0.000E+00  1.06366E+03  1.865E+00  1.200E+01  6.000E-02  1.622E+00
   1    7    6     2     4    5.1461E+01  2.9154E-01   5.1170E+01  0.000E+00  0.000E+00  0.000E+00  1.05893E+03  1.859E+00  1.200E+01  6.000E-02  1.620E+00
   1    8    6     2     5    5.1170E+01  2.9116E-01   5.0879E+01  0.000E+00  0.000E+00  0.000E+00  1.05421E+03  1.853E+00  1.200E+01  6.000E-02  1.618E+00
   1    3    5     3     1    2.0000E+00  2.8252E-01   1.7175E+00  0.000E+00  0.000E+00  0.000E+00  1.07555E+03  1.909E+00  9.636E+00  7.227E-02  1.955E+00
   1    3    6     3     2    1.7175E+00  2.4905E-01   1.4684E+00  0.000E+00  0.000E+00  0.000E+00  1.07264E+03  1.727E+00  8.909E+00  6.682E-02  1.864E+00
   1    3    7     3     3    1.4684E+00  1.9718E-01   1.2712E+00  0.000E+00  0.000E+00  0.000E+00  1.06987E+03  1.555E+00  8.218E+00  5.547E-02  1.777E+00
   1    4    8     3     4    1.2712E+00  2.2567E-01   1.0456E+00  0.000E+00  0.000E+00  0.000E+00  1.06682E+03  1.364E+00  7.455E+00  6.709E-02  1.682E+00
   1    5    8     3     5    1.0456E+00  1.5790E-01   8.8768E-01  0.000E+00  0.000E+00  0.000E+00  1.06362E+03  1.164E+00  6.655E+00  4.991E-02  1.582E+00
   1    6    8     3     6    8.8768E-01  5.5980E-02   8.3170E-01  0.000E+00  0.000E+00  0.000E+00  1.06158E+03  1.036E+00  6.145E+00  1.844E-02  1.518E+00
   1    5   10     4     1    1.0000E+01  9.0919E-02   9.9091E+00  0.000E+00  0.000E+00  0.000E+00  1.07836E+03  6.368E-01  1.000E+01  2.500E-02  1.212E+00
   1    5    9     4     2    9.9091E+00  1.8158E-01   9.7275E+00  0.000E+00  0.000E+00  0.000E+00  1.07154E+03  6.315E-01  1.000E+01  5.000E-02  1.211E+00
   1    6    8     4     3    9.7275E+00  1.2689E-01   9.6006E+00  0.000E+00  0.000E+00  0.000E+00  1.06381E+03  6.256E-01  1.000E+01  3.500E-02  1.209E+00
   1    6    8     5     1    1.0432E+01  2.2686E-01   1.0205E+01  0.000E+00  0.000E+00  0.000E+00  1.05868E+03  6.790E-01  1.542E+01  6.166E-02  1.226E+00
   1    7    7     5     2    1.0205E+01  2.7894E-01   9.9265E+00  0.000E+00  0.000E+00  0.000E+00  1.05417E+03  6.732E-01  1.519E+01  7.594E-02  1.224E+00
   1    8    7     5     3    9.9265E+00  1.9221E-01   9.7343E+00  0.000E+00  0.000E+00  0.000E+00  1.04992E+03  6.676E-01  1.497E+01  5.241E-02  1.223E+00
   1    8    6     5     4    9.7343E+00  1.3577E-01   9.5985E+00  0.000E+00  0.000E+00  0.000E+00  1.04691E+03  6.637E-01  1.482E+01  3.706E-02  1.221E+00
   1    9    6     6     1    9.5985E+00  2.2097E-01   9.3776E+00  0.000E+00  0.000E+00  0.000E+00  1.04341E+03  6.828E-01  1.200E+01  6.000E-02  1.228E+00
   1   10    7     6     2    9.3776E+00  2.2039E-01   9.1572E+00  0.000E+00  0.000E+00  0.000E+00  1.03885E+03  6.732E-01  1.200E+01  6.000E-02  1.224E+00
   1   11    7     6     3    9.1572E+00  2.1981E-01   8.9374E+00  0.000E+00  0.000E+00  0.000E+00  1.03430E+03  6.636E-01  1.200E+01  6.000E-02  1.221E+00
   1   12    7     6     4    8.9374E+00  2.1923E-01   8.7181E+00  0.000E+00  0.000E+00  0.000E+00  1.02974E+03  6.539E-01  1.200E+01  6.000E-02  1.218E+00
   1   13    7     6     5    8.7181E+00 -1.2883E-01   8.8470E+00  0.000E+00  0.000E+00  0.000E+00  1.02656E+03  6.518E-01  1.200E+01  2.400E-01 -1.789E-01
   1   14    9     7     1    1.5000E+02  1.3362E+00   1.4866E+02  0.000E+00  0.000E+00  0.000E+00  1.03987E+03  2.288E+00  5.529E+01  5.593E-01  7.964E-01
   1   13    8     7     2    1.4866E+02  1.8279E+00   1.4684E+02  0.000E+00  0.000E+00  0.000E+00  1.03478E+03  2.279E+00  5.526E+01  6.148E-01  9.911E-01
   1   13    7     7     3    1.4684E+02  1.4476E+00   1.4539E+02  0.000E+00  0.000E+00  0.000E+00  1.02969E+03  2.271E+00  5.522E+01  5.585E-01  8.641E-01
   1   13    6     8     1    1.5424E+02  8.0341E-01   1.5343E+02  0.000E+00  0.000E+00  0.000E+00  1.02472E+03  2.844E+00  4.123E+01  4.202E-01  6.374E-01
   1   13    5     8     2    1.5343E+02  7.9877E-02   1.5335E+02  0.000E+00  0.000E+00  0.000E+00  1.01847E+03  2.841E+00  4.119E+01  4.197E-01  6.344E-02
   1   13    4     8     3    1.5335E+02 -2.8891E+00   1.5624E+02  0.000E+00  0.000E+00  0.000E+00  1.01223E+03  2.850E+00  4.133E+01  4.212E+00 -2.287E-01
   1   13    3     8     4    1.5624E+02 -3.9905E+00   1.6023E+02  0.000E+00  0.000E+00  0.000E+00  1.00600E+03  2.874E+00  4.167E+01  4.246E+00 -3.132E-01
   1   13    2     8     5    1.6023E+02 -2.8918E+00   1.6312E+02  0.000E+00  0.000E+00  0.000E+00  9.99772E+02  2.897E+00  4.201E+01  4.281E+00 -2.252E-01
   1   13    1     8     6    1.6312E+02 -2.1776E+00   1.6530E+02  0.000E+00  0.000E+00  0.000E+00  9.94789E+02  2.914E+00  4.225E+01  2.584E+00 -2.810E-01
   1    8    6     9     1    5.0879E+01  0.0000E+00   5.0879E+01  0.000E+00  0.000E+00  0.000E+00  1.08476E+03  6.014E+00  4.000E+00  0.000E+00  3.005E+00
   1    8    5     9     2    5.0879E+01  0.0000E+00   5.0879E+01  0.000E+00  0.000E+00  0.000E+00  1.08426E+03  6.014E+00  4.000E+00  0.000E+00  3.005E+00



 UBDSV3 SAVING "           GW ET" ON UNIT  61 AT TIME STEP 10, STRESS PERIOD   8
 UBDSV3 SAVING "    UZF RECHARGE" ON UNIT  61 AT TIME STEP 10, STRESS PERIOD   8
 UBDSV3 SAVING " SURFACE LEAKAGE" ON UNIT  61 AT TIME STEP 10, STRESS PERIOD   8
 UBDSV3 SAVING "       HORT+DUNN" ON UNIT  61 AT TIME STEP 10, STRESS PERIOD   8
 UBDSV3 SAVING "  STORAGE CHANGE" ON UNIT  61 AT TIME STEP 10, STRESS PERIOD   8


UNSATURATED ZONE PACKAGE VOLUMETRIC BUDGET FOR  TIME STEP    10 STRESS PERIOD    8
  ------------------------------------------------------------------------------



     CUMULATIVE VOLUMES      L**3       RATES FOR THIS TIME STEP      L**3/T
     ------------------                 ------------------------

           IN:                                      IN:
           ---                                      ---
        INFILTRATION =  1006680366.7798          INFILTRATION =         169.3248

          OUT:                                     OUT:
          ----                                     ----
              UZF ET =   157364431.9596                UZF ET =          60.8175
        UZF RECHARGE =   190142164.0098          UZF RECHARGE =         119.5196

            IN - OUT =   659173770.8104              IN - OUT =         -11.0123

          STORAGE:                                 STORAGE:
          --------                                 --------
      STORAGE CHANGE =   659175884.3844        STORAGE CHANGE =         -11.0123

 PERCENT DISCREPANCY IS DIFFERENCE BETWEEN IN-OUT MINUS CHANGE IN STORAGE
 DIVIDED BY THE AVERAGE OF IN AND OUT TIMES 100

 PERCENT DISCREPANCY =          -0.00     PERCENT DISCREPANCY =           0.00






 

        AG WELLS          PERIOD    8   STEP  10
 AG WELL      1   LAYER   1   ROW     6   COL     4   RATE    -19.5996    
 AG WELL      2   LAYER   1   ROW     6   COL     5   RATE    -19.5996    
 AG WELL      3   LAYER   1   ROW     7   COL     4   RATE    -19.5996    
 AG WELL      4   LAYER   1   ROW     7   COL     5   RATE    -19.5996    
 AG WELL      5   LAYER   1   ROW     8   COL     4   RATE    -19.5996    
 AG WELL      6   LAYER   1   ROW     8   COL     5   RATE    -19.5996    
 
 

   DIVERSION SEGMENTS     PERIOD    8   STEP  10
 SEGMENT      9   RATE     50.8787    
 
 

        SW IRRIGATION     PERIOD    8   STEP  10
 SEGMENT      9   ROW     6   COL     4   RATE     8.47995    
 SEGMENT      9   ROW     6   COL     5   RATE     8.47995    
 SEGMENT      9   ROW     7   COL     4   RATE     8.47995    
 SEGMENT      9   ROW     7   COL     5   RATE     8.47995    
 SEGMENT      9   ROW     8   COL     4   RATE     8.47995    
 SEGMENT      9   ROW     8   COL     5   RATE     8.47995    
 
 

        GW IRRIGATION     PERIOD    8   STEP  10
 AG WELL      1   ROW     6   COL     4   RATE     19.5996    
 AG WELL      2   ROW     6   COL     5   RATE     19.5996    
 AG WELL      3   ROW     7   COL     4   RATE     19.5996    
 AG WELL      4   ROW     7   COL     5   RATE     19.5996    
 AG WELL      5   ROW     8   COL     4   RATE     19.5996    
 AG WELL      6   ROW     8   COL     5   RATE     19.5996    
 
1
  VOLUMETRIC BUDGET FOR AGRICULTURAL FIELDS AT  END OF TIME STEP   10, STRESS PERIOD   8
  ------------------------------------------------------------------------------

     CUMULATIVE VOLUMES      L**3       RATES FOR THIS TIME STEP      L**3/T
     ------------------                 ------------------------

           IN:                                      IN:
           ---                                      ---
           AG WELLS      =   667339328.0000             AG WELLS      =         117.5976
      DIVERSION SEGMENTS =   325144384.0000        DIVERSION SEGMENTS =          50.8787
           GW IRRIGATION =           0.0000             GW IRRIGATION =           0.0000
           SW IRRIGATION =           0.0000             SW IRRIGATION =           0.0000
        SYSTEM LOSSES GW =           0.0000          SYSTEM LOSSES GW =           0.0000
        SYSTEM LOSSES SW =           0.0000          SYSTEM LOSSES SW =           0.0000

                TOTAL IN =   992483712.0000                  TOTAL IN =         168.4763

          OUT:                                     OUT:
          ----                                     ----
           AG WELLS      =           0.0000             AG WELLS      =           0.0000
      DIVERSION SEGMENTS =           0.0000        DIVERSION SEGMENTS =           0.0000
           GW IRRIGATION =   667339328.0000             GW IRRIGATION =         117.5976
           SW IRRIGATION =   325151072.0000             SW IRRIGATION =          50.8797
        SYSTEM LOSSES GW =           0.0000          SYSTEM LOSSES GW =           0.0000
        SYSTEM LOSSES SW =           0.0000          SYSTEM LOSSES SW =           0.0000

               TOTAL OUT =   992490368.0000                 TOTAL OUT =         168.4773

                IN - OUT =       -6656.0000                  IN - OUT =      -1.0071E-03

     PERCENT DISCREPANCY =          -0.00         PERCENT DISCREPANCY =          -0.00



1
  VOLUMETRIC BUDGET FOR ENTIRE MODEL AT END OF TIME STEP   10, STRESS PERIOD   8
  ------------------------------------------------------------------------------

     CUMULATIVE VOLUMES      L**3       RATES FOR THIS TIME STEP      L**3/T
     ------------------                 ------------------------

           IN:                                      IN:
           ---                                      ---
             STORAGE     =   765982464.0000               STORAGE     =          96.2703
       CONSTANT HEAD     =           0.0000         CONSTANT HEAD     =           0.0000
     HEAD DEP BOUNDS     =     4783927.5000       HEAD DEP BOUNDS     =           0.2858
      STREAM LEAKAGE     =   202897680.0000        STREAM LEAKAGE     =          12.1485
        UZF RECHARGE     =   190142176.0000          UZF RECHARGE     =         119.5196
               GW ET     =           0.0000                 GW ET     =           0.0000
     SURFACE LEAKAGE     =           0.0000       SURFACE LEAKAGE     =           0.0000
           AG WELLS      =           0.0000             AG WELLS      =           0.0000

                TOTAL IN =  1163806208.0000                  TOTAL IN =         228.2242

          OUT:                                     OUT:
          ----                                     ----
             STORAGE     =   309846560.0000               STORAGE     =          98.2610
       CONSTANT HEAD     =           0.0000         CONSTANT HEAD     =           0.0000
     HEAD DEP BOUNDS     =     4858677.5000       HEAD DEP BOUNDS     =           0.2900
      STREAM LEAKAGE     =   181695728.0000        STREAM LEAKAGE     =          12.0779
        UZF RECHARGE     =           0.0000          UZF RECHARGE     =           0.0000
               GW ET     =       56916.5898                 GW ET     =           0.0000
     SURFACE LEAKAGE     =           0.0000       SURFACE LEAKAGE     =           0.0000
           AG WELLS      =   667339328.0000             AG WELLS      =         117.5976

               TOTAL OUT =  1163797248.0000                 TOTAL OUT =         228.2266

                IN - OUT =        8960.0000                  IN - OUT =      -2.3499E-03

     PERCENT DISCREPANCY =           0.00         PERCENT DISCREPANCY =          -0.00






         TIME SUMMARY AT END OF TIME STEP   10 IN STRESS PERIOD    8
                    SECONDS     MINUTES      HOURS       DAYS        YEARS
                    -----------------------------------------------------------
   TIME STEP LENGTH  87667.      1461.1      24.352      1.0147     2.77799E-03
 STRESS PERIOD TIME 8.76667E+05  14611.      243.52      10.147     2.77799E-02
         TOTAL TIME 1.67431E+07 2.79052E+05  4650.9      193.79     0.53056    
1
 
 SOLVING FOR HEAD 
                                                   Max.-Head-Change                         Max.-Flux-Residual
  Residual-Control   Outer-Iter.   Inner-Iter.     Column Row Layer    Maximum-Head-Change  Column Row Layer    Maximum-Flux-Residual          L2-NORM 
          0                 1           2             5    8     1       0.1611012185E+01       5    8    1         0.8707680239E+02      0.1309691301E+03
          0                 2           2             5    8     1       0.5246570343E+00       5    8    1         0.2827264527E+02      0.4595744825E+02
          0                 3           2             4    8     1       0.4389255183E+00       4    8    1         0.2351060806E+02      0.3805914498E+02
          0                 4           2             4    6     1      -0.2472519306E+00       4    6    1        -0.1441626068E+02      0.2150659732E+02
          0                 5           2             4    7     1      -0.9751781400E-01       4    7    1        -0.5731813469E+01      0.7569879031E+01
          0                 6           2             4    7     1      -0.5943038779E-01       4    7    1        -0.3490534710E+01      0.4349930162E+01
          0                 7           2             4    7     1      -0.3622724704E-01       4    7    1        -0.2127220494E+01      0.2605369577E+01
          0                 8           2             4    7     1      -0.2208732519E-01       4    7    1        -0.1296707871E+01      0.1570923359E+01
          0                 9           2             4    7     1      -0.1346850896E-01       4    7    1        -0.7905906042E+00      0.9488481377E+00
          0                10           2             4    7     1      -0.8214018251E-02       4    7    1        -0.4820905719E+00      0.5737013478E+00
                                                   Max.-Head-Change                         Max.-Flux-Residual
  Residual-Control   Outer-Iter.   Inner-Iter.     Column Row Layer    Maximum-Head-Change  Column Row Layer    Maximum-Flux-Residual          L2-NORM 
          0                11           2             4    7     1      -0.5010076882E-02       4    7    1        -0.2940116332E+00      0.3471804828E+00
          0                12           2             4    7     1      -0.3056184047E-02       4    7    1        -0.1793297119E+00      0.2102658804E+00
          0                13           2             4    7     1      -0.1864470391E-02       4    7    1        -0.1093920436E+00      0.1274368793E+00
          0                14           2             4    7     1      -0.1137541852E-02       4    7    1        -0.6673589930E-01      0.7728679454E-01
          0                15           2             4    7     1      -0.6940818594E-03       4    7    1        -0.4071633534E-01      0.4689996384E-01
          0                16           2             4    7     1      -0.4235272484E-03       4    7    1        -0.2484327170E-01      0.2847555183E-01
          0                17           1             4    7     1      -0.2584494983E-03       4    7    1        -0.1515918373E-01      0.1729743564E-01
          0                18           1             4    7     1      -0.1577213145E-03       4    7    1        -0.9250519537E-02      0.1051188833E-01
          0                19           1             4    7     1      -0.9625480938E-04       4    7    1        -0.5645162339E-02      0.6390731904E-02

    ------------------------------------------------
       NWT REQUIRED           19 OUTER ITERATIONS 
       AND A TOTAL OF         35 INNER ITERATIONS.
    ------------------------------------------------

 NO OUTPUT CONTROL FOR STRESS PERIOD    8   TIME STEP   11
 
 SOLVING FOR HEAD 
                                                   Max.-Head-Change                         Max.-Flux-Residual
  Residual-Control   Outer-Iter.   Inner-Iter.     Column Row Layer    Maximum-Head-Change  Column Row Layer    Maximum-Flux-Residual          L2-NORM 
          0                 1           2             4    7     1       0.1846212623E+01       4    7    1         0.9693924162E+02      0.1990050127E+03
          0                 2           2             4    7     1       0.8297388648E+00       4    7    1         0.4368046840E+02      0.8659204835E+02
          0                 3           2             4    7     1       0.6548173792E+00       4    7    1         0.3440997422E+02      0.6954038870E+02
          0                 4           2             5    8     1      -0.2502544700E+00       5    8    1        -0.1468735307E+02      0.1722407946E+02
          0                 5           2             4    7     1       0.6936300827E-01       4    7    1         0.3728336907E+01      0.5149611708E+01
          0                 6           2             4    7     1       0.4018826682E-01       4    7    1         0.2160050203E+01      0.2972470096E+01
          0                 7           2             4    7     1       0.2329260791E-01       4    7    1         0.1251527003E+01      0.1727643172E+01
          0                 8           2             4    7     1       0.1350646363E-01       4    7    1         0.7254112015E+00      0.1004945688E+01
          0                 9           2             4    7     1       0.7835806318E-02       4    7    1         0.4206676305E+00      0.5849722516E+00
          0                10           2             4    7     1       0.4548234418E-02       4    7    1         0.2440695491E+00      0.3407300119E+00
                                                   Max.-Head-Change                         Max.-Flux-Residual
  Residual-Control   Outer-Iter.   Inner-Iter.     Column Row Layer    Maximum-Head-Change  Column Row Layer    Maximum-Flux-Residual          L2-NORM 
          0                11           2             4    7     1       0.2641268224E-02       4    7    1         0.1416787351E+00      0.1985853776E+00
          0                12           2             4    7     1       0.1534562069E-02       4    7    1         0.8228206025E-01      0.1158046142E+00
          0                13           2             4    7     1       0.8919696647E-03       4    7    1         0.4780866997E-01      0.6756584673E-01
          0                14           2             4    7     1       0.5186815979E-03       4    7    1         0.2779076789E-01      0.3943970531E-01
          0                15           2             4    7     1       0.3017368940E-03       4    7    1         0.1616137454E-01      0.2303184822E-01
          0                16           2             4    7     1       0.1756001113E-03       4    7    1         0.9402246555E-02      0.1345542685E-01
          0                17           1             4    7     1       0.1022309097E-03       4    7    1         0.5472081929E-02      0.7863679274E-02
          0                18           1             4    7     1       0.5953787802E-04       4    7    1         0.3185909814E-02      0.4597279388E-02

    ------------------------------------------------
       NWT REQUIRED           18 OUTER ITERATIONS 
       AND A TOTAL OF         34 INNER ITERATIONS.
    ------------------------------------------------

 NO OUTPUT CONTROL FOR STRESS PERIOD    8   TIME STEP   12
 
 SOLVING FOR HEAD 
                                                   Max.-Head-Change                         Max.-Flux-Residual
  Residual-Control   Outer-Iter.   Inner-Iter.     Column Row Layer    Maximum-Head-Change  Column Row Layer    Maximum-Flux-Residual          L2-NORM 
          0                 1           2             4    6     1       0.1823799434E+01       4    6    1         0.9696870546E+02      0.1557955393E+03
          0                 2           2             4    6     1       0.7964068710E+00       4    6    1         0.4285999967E+02      0.6297294087E+02
          0                 3           2             4    6     1       0.6169704241E+00       4    6    1         0.3327541538E+02      0.4122837325E+02
          0                 4           2             4    8     1      -0.2625726260E+00       4    8    1        -0.1473004537E+02      0.2927002966E+02
          0                 5           2             5    7     1      -0.5761632630E-01       5    7    1        -0.3389253804E+01      0.5683982431E+01
          0                 6           2             4    6     1       0.2707877643E-01       4    6    1         0.1495326954E+01      0.1926278200E+01
          0                 7           2             4    6     1       0.1531685858E-01       4    6    1         0.8397881463E+00      0.8915817487E+00
          0                 8           2             4    6     1       0.8696749113E-02       4    6    1         0.4754408934E+00      0.4810946977E+00
          0                 9           2             4    6     1       0.4945492033E-02       4    6    1         0.2700471891E+00      0.2706388989E+00
          0                10           2             4    6     1       0.2814044094E-02       4    6    1         0.1535867877E+00      0.1536551053E+00
                                                   Max.-Head-Change                         Max.-Flux-Residual
  Residual-Control   Outer-Iter.   Inner-Iter.     Column Row Layer    Maximum-Head-Change  Column Row Layer    Maximum-Flux-Residual          L2-NORM 
          0                11           2             4    6     1       0.1601618992E-02       4    6    1         0.8739573359E-01      0.8741267185E-01
          0                12           2             4    6     1       0.9116644729E-03       4    6    1         0.4974222454E-01      0.4975188953E-01
          0                13           2             4    6     1       0.5189577450E-03       4    6    1         0.2831418025E-01      0.2832036646E-01
          0                14           2             4    6     1       0.2954189790E-03       4    6    1         0.1611767101E-01      0.1612144907E-01
          0                15           2             4    6     1       0.1681701833E-03       4    6    1         0.9175067733E-02      0.9177293723E-02
          0                16           1             4    6     1       0.9573295927E-04       4    6    1         0.5223001548E-02      0.5224289181E-02

    ------------------------------------------------
       NWT REQUIRED           16 OUTER ITERATIONS 
       AND A TOTAL OF         31 INNER ITERATIONS.
    ------------------------------------------------

 NO OUTPUT CONTROL FOR STRESS PERIOD    8   TIME STEP   13
 
 SOLVING FOR HEAD 
                                                   Max.-Head-Change                         Max.-Flux-Residual
  Residual-Control   Outer-Iter.   Inner-Iter.     Column Row Layer    Maximum-Head-Change  Column Row Layer    Maximum-Flux-Residual          L2-NORM 
          0                 1           2             4    6     1       0.1326825100E+01       4    6    1         0.7241475871E+02      0.7290863402E+02
          0                 2           2             4    8     1      -0.2637842422E+00       5    8    1        -0.1416751653E+02      0.3124216818E+02
          0                 3           2             4    8     1       0.1815887801E+00       4    8    1         0.9884886953E+01      0.2274098698E+02
          0                 4           2             4    8     1      -0.2637857326E+00       4    8    1        -0.1473887078E+02      0.3473885693E+02
          0                 5           2             4    6     1      -0.5080132898E-01       4    6    1        -0.2857268046E+01      0.2998199723E+01
          0                 6           2             4    6     1      -0.1141858171E-01       4    6    1        -0.6396096675E+00      0.6397533191E+00
          0                 7           2             4    6     1      -0.2566421051E-02       4    6    1        -0.1437620470E+00      0.1437697560E+00
          0                 8           2             4    6     1      -0.5768039138E-03       4    6    1        -0.3231000936E-01      0.3231189176E-01
          0                 9           2             4    6     1      -0.1296325786E-03       4    6    1        -0.7261359191E-02      0.7261793088E-02
          0                10           1             4    6     1      -0.2913305626E-04       4    6    1        -0.1631869864E-02      0.1631967903E-02

    ------------------------------------------------
       NWT REQUIRED           10 OUTER ITERATIONS 
       AND A TOTAL OF         19 INNER ITERATIONS.
    ------------------------------------------------

 NO OUTPUT CONTROL FOR STRESS PERIOD    8   TIME STEP   14
 
 SOLVING FOR HEAD 
                                                   Max.-Head-Change                         Max.-Flux-Residual
  Residual-Control   Outer-Iter.   Inner-Iter.     Column Row Layer    Maximum-Head-Change  Column Row Layer    Maximum-Flux-Residual          L2-NORM 
          0                 1           2             4    5     1       0.7914836288E-01       4    5    1         0.4323182128E+01      0.8275790478E+01
          0                 2           2             4    8     1      -0.2647880237E+00       5    8    1        -0.1421999420E+02      0.3450666327E+02
          0                 3           2             4    8     1       0.1819259678E+00       4    8    1         0.9888688564E+01      0.2369382139E+02
          0                 4           2             4    8     1      -0.2638814250E+00       4    8    1        -0.1474421830E+02      0.3571591396E+02
          0                 5           2             4    6     1       0.1046196164E-01       4    8    1         0.6104846053E+00      0.1086317517E+01
          0                 6           2             4    6     1      -0.1290081917E-03       4    8    1        -0.7889263281E-02      0.1432406766E-01
          0                 7           1             4    6     1      -0.1897358358E-05       4    8    1        -0.1160272452E-03      0.2106480010E-03

    ------------------------------------------------
       NWT REQUIRED            7 OUTER ITERATIONS 
       AND A TOTAL OF         13 INNER ITERATIONS.
    ------------------------------------------------

 OUTPUT CONTROL FOR STRESS PERIOD    8   TIME STEP   15
    PRINT BUDGET
    SAVE BUDGET
 UBDSV1 SAVING "         STORAGE" ON UNIT 102 AT TIME STEP 15, STRESS PERIOD   8
 UBDSV2 SAVING "   CONSTANT HEAD" ON UNIT 102 AT TIME STEP 15, STRESS PERIOD   8
 UBDSV1 SAVING "FLOW RIGHT FACE " ON UNIT 102 AT TIME STEP 15, STRESS PERIOD   8
 UBDSV1 SAVING "FLOW FRONT FACE " ON UNIT 102 AT TIME STEP 15, STRESS PERIOD   8

  HEAD DEP BOUNDS   PERIOD    8   STEP    15
 BOUNDARY      1   LAYER   1   ROW    13   COL     1   RATE   -0.289408    
 BOUNDARY      2   LAYER   1   ROW    14   COL     9   RATE    0.285790    



 STREAM LISTING     PERIOD      8   STEP       15

 LAYER ROW COL. STREAM  RCH.  FLOW INTO     FLOW TO   FLOW OUT OF   OVRLND.     DIRECT     STREAM       STREAM     STREAM     STREAM   STREAMBED  STREAMBED
                SEG.NO.  NO.  STRM. RCH.    AQUIFER    STRM. RCH.    RUNOFF     PRECIP       ET          HEAD       DEPTH      WIDTH   CONDCTNC.   GRADIENT

   1    1    1     1     1    5.6250E+01  3.5874E-01   5.5891E+01  0.000E+00  0.000E+00  0.000E+00  1.09453E+03  1.479E+00  1.780E+01  8.010E-02  1.493E+00
   1    2    2     1     2    5.5891E+01  5.5550E-01   5.5335E+01  0.000E+00  0.000E+00  0.000E+00  1.08953E+03  1.473E+00  1.774E+01  1.242E-01  1.491E+00
   1    3    3     1     3    5.5335E+01  4.7368E-01   5.4862E+01  0.000E+00  0.000E+00  0.000E+00  1.08389E+03  1.467E+00  1.767E+01  1.060E-01  1.489E+00
   1    3    4     1     4    5.4862E+01  4.3613E-01   5.4426E+01  0.000E+00  0.000E+00  0.000E+00  1.07887E+03  1.461E+00  1.762E+01  9.777E-02  1.487E+00
   1    4    5     2     1    5.2426E+01  3.8056E-01   5.2045E+01  0.000E+00  0.000E+00  0.000E+00  1.07381E+03  1.879E+00  1.200E+01  7.800E-02  1.626E+00
   1    5    6     2     2    5.2045E+01  2.9230E-01   5.1753E+01  0.000E+00  0.000E+00  0.000E+00  1.06838E+03  1.872E+00  1.200E+01  6.000E-02  1.624E+00
   1    6    6     2     3    5.1753E+01  2.9192E-01   5.1461E+01  0.000E+00  0.000E+00  0.000E+00  1.06366E+03  1.865E+00  1.200E+01  6.000E-02  1.622E+00
   1    7    6     2     4    5.1461E+01  2.9154E-01   5.1169E+01  0.000E+00  0.000E+00  0.000E+00  1.05893E+03  1.859E+00  1.200E+01  6.000E-02  1.620E+00
   1    8    6     2     5    5.1169E+01  2.9116E-01   5.0878E+01  0.000E+00  0.000E+00  0.000E+00  1.05421E+03  1.853E+00  1.200E+01  6.000E-02  1.618E+00
   1    3    5     3     1    2.0000E+00  2.8252E-01   1.7175E+00  0.000E+00  0.000E+00  0.000E+00  1.07555E+03  1.909E+00  9.636E+00  7.227E-02  1.955E+00
   1    3    6     3     2    1.7175E+00  2.4905E-01   1.4684E+00  0.000E+00  0.000E+00  0.000E+00  1.07264E+03  1.727E+00  8.909E+00  6.682E-02  1.864E+00
   1    3    7     3     3    1.4684E+00  1.9718E-01   1.2712E+00  0.000E+00  0.000E+00  0.000E+00  1.06987E+03  1.555E+00  8.218E+00  5.547E-02  1.777E+00
   1    4    8     3     4    1.2712E+00  2.2567E-01   1.0456E+00  0.000E+00  0.000E+00  0.000E+00  1.06682E+03  1.364E+00  7.455E+00  6.709E-02  1.682E+00
   1    5    8     3     5    1.0456E+00  1.5790E-01   8.8768E-01  0.000E+00  0.000E+00  0.000E+00  1.06362E+03  1.164E+00  6.655E+00  4.991E-02  1.582E+00
   1    6    8     3     6    8.8768E-01  5.5980E-02   8.3170E-01  0.000E+00  0.000E+00  0.000E+00  1.06158E+03  1.036E+00  6.145E+00  1.844E-02  1.518E+00
   1    5   10     4     1    1.0000E+01  9.0919E-02   9.9091E+00  0.000E+00  0.000E+00  0.000E+00  1.07836E+03  6.368E-01  1.000E+01  2.500E-02  1.212E+00
   1    5    9     4     2    9.9091E+00  1.8158E-01   9.7275E+00  0.000E+00  0.000E+00  0.000E+00  1.07154E+03  6.315E-01  1.000E+01  5.000E-02  1.211E+00
   1    6    8     4     3    9.7275E+00  1.2689E-01   9.6006E+00  0.000E+00  0.000E+00  0.000E+00  1.06381E+03  6.256E-01  1.000E+01  3.500E-02  1.209E+00
   1    6    8     5     1    1.0432E+01  2.2686E-01   1.0205E+01  0.000E+00  0.000E+00  0.000E+00  1.05868E+03  6.790E-01  1.542E+01  6.166E-02  1.226E+00
   1    7    7     5     2    1.0205E+01  2.7894E-01   9.9265E+00  0.000E+00  0.000E+00  0.000E+00  1.05417E+03  6.732E-01  1.519E+01  7.594E-02  1.224E+00
   1    8    7     5     3    9.9265E+00  1.9221E-01   9.7343E+00  0.000E+00  0.000E+00  0.000E+00  1.04992E+03  6.676E-01  1.497E+01  5.241E-02  1.223E+00
   1    8    6     5     4    9.7343E+00  1.3577E-01   9.5985E+00  0.000E+00  0.000E+00  0.000E+00  1.04691E+03  6.637E-01  1.482E+01  3.706E-02  1.221E+00
   1    9    6     6     1    9.5985E+00  2.2097E-01   9.3776E+00  0.000E+00  0.000E+00  0.000E+00  1.04341E+03  6.828E-01  1.200E+01  6.000E-02  1.228E+00
   1   10    7     6     2    9.3776E+00  2.2039E-01   9.1572E+00  0.000E+00  0.000E+00  0.000E+00  1.03885E+03  6.732E-01  1.200E+01  6.000E-02  1.224E+00
   1   11    7     6     3    9.1572E+00  2.1981E-01   8.9374E+00  0.000E+00  0.000E+00  0.000E+00  1.03430E+03  6.636E-01  1.200E+01  6.000E-02  1.221E+00
   1   12    7     6     4    8.9374E+00  2.1923E-01   8.7181E+00  0.000E+00  0.000E+00  0.000E+00  1.02974E+03  6.539E-01  1.200E+01  6.000E-02  1.218E+00
   1   13    7     6     5    8.7181E+00 -1.2731E-01   8.8454E+00  0.000E+00  0.000E+00  0.000E+00  1.02656E+03  6.518E-01  1.200E+01  2.400E-01 -1.768E-01
   1   14    9     7     1    1.5000E+02  1.3363E+00   1.4866E+02  0.000E+00  0.000E+00  0.000E+00  1.03987E+03  2.288E+00  5.529E+01  5.593E-01  7.964E-01
   1   13    8     7     2    1.4866E+02  1.8280E+00   1.4684E+02  0.000E+00  0.000E+00  0.000E+00  1.03478E+03  2.279E+00  5.526E+01  6.148E-01  9.912E-01
   1   13    7     7     3    1.4684E+02  1.4512E+00   1.4538E+02  0.000E+00  0.000E+00  0.000E+00  1.02969E+03  2.271E+00  5.522E+01  5.585E-01  8.662E-01
   1   13    6     8     1    1.5423E+02  8.0698E-01   1.5342E+02  0.000E+00  0.000E+00  0.000E+00  1.02472E+03  2.844E+00  4.123E+01  4.202E-01  6.402E-01
   1   13    5     8     2    1.5342E+02  8.3954E-02   1.5334E+02  0.000E+00  0.000E+00  0.000E+00  1.01847E+03  2.840E+00  4.119E+01  4.197E-01  6.668E-02
   1   13    4     8     3    1.5334E+02 -2.8089E+00   1.5615E+02  0.000E+00  0.000E+00  0.000E+00  1.01222E+03  2.850E+00  4.132E+01  4.211E+00 -2.223E-01
   1   13    3     8     4    1.5615E+02 -3.9153E+00   1.6006E+02  0.000E+00  0.000E+00  0.000E+00  1.00600E+03  2.873E+00  4.166E+01  4.245E+00 -3.074E-01
   1   13    2     8     5    1.6006E+02 -2.8061E+00   1.6287E+02  0.000E+00  0.000E+00  0.000E+00  9.99771E+02  2.896E+00  4.199E+01  4.279E+00 -2.186E-01
   1   13    1     8     6    1.6287E+02 -2.1397E+00   1.6501E+02  0.000E+00  0.000E+00  0.000E+00  9.94787E+02  2.912E+00  4.223E+01  2.582E+00 -2.762E-01
   1    8    6     9     1    5.0878E+01  0.0000E+00   5.0878E+01  0.000E+00  0.000E+00  0.000E+00  1.08476E+03  6.014E+00  4.000E+00  0.000E+00  3.005E+00
   1    8    5     9     2    5.0878E+01  0.0000E+00   5.0878E+01  0.000E+00  0.000E+00  0.000E+00  1.08426E+03  6.014E+00  4.000E+00  0.000E+00  3.005E+00



 UBDSV3 SAVING "           GW ET" ON UNIT  61 AT TIME STEP 15, STRESS PERIOD   8
 UBDSV3 SAVING "    UZF RECHARGE" ON UNIT  61 AT TIME STEP 15, STRESS PERIOD   8
 UBDSV3 SAVING " SURFACE LEAKAGE" ON UNIT  61 AT TIME STEP 15, STRESS PERIOD   8
 UBDSV3 SAVING "       HORT+DUNN" ON UNIT  61 AT TIME STEP 15, STRESS PERIOD   8
 UBDSV3 SAVING "  STORAGE CHANGE" ON UNIT  61 AT TIME STEP 15, STRESS PERIOD   8


UNSATURATED ZONE PACKAGE VOLUMETRIC BUDGET FOR  TIME STEP    15 STRESS PERIOD    8
  ------------------------------------------------------------------------------



     CUMULATIVE VOLUMES      L**3       RATES FOR THIS TIME STEP      L**3/T
     ------------------                 ------------------------

           IN:                                      IN:
           ---                                      ---
        INFILTRATION =  1080900442.7592          INFILTRATION =         169.3228

          OUT:                                     OUT:
          ----                                     ----
              UZF ET =   184022768.1890                UZF ET =          60.8175
        UZF RECHARGE =   370311446.8848          UZF RECHARGE =       0.0000E+00

            IN - OUT =   526566227.6854              IN - OUT =         108.5053

          STORAGE:                                 STORAGE:
          --------                                 --------
      STORAGE CHANGE =   526568341.1718        STORAGE CHANGE =         108.5053

 PERCENT DISCREPANCY IS DIFFERENCE BETWEEN IN-OUT MINUS CHANGE IN STORAGE
 DIVIDED BY THE AVERAGE OF IN AND OUT TIMES 100

 PERCENT DISCREPANCY =          -0.00     PERCENT DISCREPANCY =           0.00






 

        AG WELLS          PERIOD    8   STEP  15
 AG WELL      1   LAYER   1   ROW     6   COL     4   RATE    -19.5994    
 AG WELL      2   LAYER   1   ROW     6   COL     5   RATE    -19.5994    
 AG WELL      3   LAYER   1   ROW     7   COL     4   RATE    -19.5994    
 AG WELL      4   LAYER   1   ROW     7   COL     5   RATE    -19.5994    
 AG WELL      5   LAYER   1   ROW     8   COL     4   RATE    -19.5994    
 AG WELL      6   LAYER   1   ROW     8   COL     5   RATE    -19.5994    
 
 

   DIVERSION SEGMENTS     PERIOD    8   STEP  15
 SEGMENT      9   RATE     50.8780    
 
 

        SW IRRIGATION     PERIOD    8   STEP  15
 SEGMENT      9   ROW     6   COL     4   RATE     8.47984    
 SEGMENT      9   ROW     6   COL     5   RATE     8.47984    
 SEGMENT      9   ROW     7   COL     4   RATE     8.47984    
 SEGMENT      9   ROW     7   COL     5   RATE     8.47984    
 SEGMENT      9   ROW     8   COL     4   RATE     8.47984    
 SEGMENT      9   ROW     8   COL     5   RATE     8.47984    
 
 

        GW IRRIGATION     PERIOD    8   STEP  15
 AG WELL      1   ROW     6   COL     4   RATE     19.5994    
 AG WELL      2   ROW     6   COL     5   RATE     19.5994    
 AG WELL      3   ROW     7   COL     4   RATE     19.5994    
 AG WELL      4   ROW     7   COL     5   RATE     19.5994    
 AG WELL      5   ROW     8   COL     4   RATE     19.5994    
 AG WELL      6   ROW     8   COL     5   RATE     19.5994    
 
1
  VOLUMETRIC BUDGET FOR AGRICULTURAL FIELDS AT  END OF TIME STEP   15, STRESS PERIOD   8
  ------------------------------------------------------------------------------

     CUMULATIVE VOLUMES      L**3       RATES FOR THIS TIME STEP      L**3/T
     ------------------                 ------------------------

           IN:                                      IN:
           ---                                      ---
           AG WELLS      =   718885824.0000             AG WELLS      =         117.5962
      DIVERSION SEGMENTS =   347446016.0000        DIVERSION SEGMENTS =          50.8780
           GW IRRIGATION =           0.0000             GW IRRIGATION =           0.0000
           SW IRRIGATION =           0.0000             SW IRRIGATION =           0.0000
        SYSTEM LOSSES GW =           0.0000          SYSTEM LOSSES GW =           0.0000
        SYSTEM LOSSES SW =           0.0000          SYSTEM LOSSES SW =           0.0000

                TOTAL IN =  1066331840.0000                  TOTAL IN =         168.4742

          OUT:                                     OUT:
          ----                                     ----
           AG WELLS      =           0.0000             AG WELLS      =           0.0000
      DIVERSION SEGMENTS =           0.0000        DIVERSION SEGMENTS =           0.0000
           GW IRRIGATION =   718885824.0000             GW IRRIGATION =         117.5962
           SW IRRIGATION =   347453056.0000             SW IRRIGATION =          50.8790
        SYSTEM LOSSES GW =           0.0000          SYSTEM LOSSES GW =           0.0000
        SYSTEM LOSSES SW =           0.0000          SYSTEM LOSSES SW =           0.0000

               TOTAL OUT =  1066338880.0000                 TOTAL OUT =         168.4753

                IN - OUT =       -7040.0000                  IN - OUT =      -1.0071E-03

     PERCENT DISCREPANCY =          -0.00         PERCENT DISCREPANCY =          -0.00



1
  VOLUMETRIC BUDGET FOR ENTIRE MODEL AT END OF TIME STEP   15, STRESS PERIOD   8
  ------------------------------------------------------------------------------

     CUMULATIVE VOLUMES      L**3       RATES FOR THIS TIME STEP      L**3/T
     ------------------                 ------------------------

           IN:                                      IN:
           ---                                      ---
             STORAGE     =   798442624.0000               STORAGE     =         132.2259
       CONSTANT HEAD     =           0.0000         CONSTANT HEAD     =           0.0000
     HEAD DEP BOUNDS     =     4909198.5000       HEAD DEP BOUNDS     =           0.2858
      STREAM LEAKAGE     =   208225760.0000        STREAM LEAKAGE     =          12.1598
        UZF RECHARGE     =   370311424.0000          UZF RECHARGE     =           0.0000
               GW ET     =           0.0000                 GW ET     =           0.0000
     SURFACE LEAKAGE     =           0.0000       SURFACE LEAKAGE     =           0.0000
           AG WELLS      =           0.0000             AG WELLS      =           0.0000

                TOTAL IN =  1381889024.0000                  TOTAL IN =         144.6715

          OUT:                                     OUT:
          ----                                     ----
             STORAGE     =   471038944.0000               STORAGE     =          14.9886
       CONSTANT HEAD     =           0.0000         CONSTANT HEAD     =           0.0000
     HEAD DEP BOUNDS     =     4985637.0000       HEAD DEP BOUNDS     =           0.2894
      STREAM LEAKAGE     =   186912560.0000        STREAM LEAKAGE     =          11.7973
        UZF RECHARGE     =           0.0000          UZF RECHARGE     =           0.0000
               GW ET     =       56916.5898                 GW ET     =           0.0000
     SURFACE LEAKAGE     =           0.0000       SURFACE LEAKAGE     =           0.0000
           AG WELLS      =   718885824.0000             AG WELLS      =         117.5962

               TOTAL OUT =  1381879808.0000                 TOTAL OUT =         144.6715

                IN - OUT =        9216.0000                  IN - OUT =           0.0000

     PERCENT DISCREPANCY =           0.00         PERCENT DISCREPANCY =           0.00






         TIME SUMMARY AT END OF TIME STEP   15 IN STRESS PERIOD    8
                    SECONDS     MINUTES      HOURS       DAYS        YEARS
                    -----------------------------------------------------------
   TIME STEP LENGTH  87667.      1461.1      24.352      1.0147     2.77799E-03
 STRESS PERIOD TIME 1.31500E+06  21917.      365.28      15.220     4.16698E-02
         TOTAL TIME 1.71814E+07 2.86357E+05  4772.6      198.86     0.54445    
1
 
 SOLVING FOR HEAD 
                                                   Max.-Head-Change                         Max.-Flux-Residual
  Residual-Control   Outer-Iter.   Inner-Iter.     Column Row Layer    Maximum-Head-Change  Column Row Layer    Maximum-Flux-Residual          L2-NORM 
          0                 1           2             4    5     1       0.7014534788E-01       4    5    1         0.3832501394E+01      0.7412188722E+01
          0                 2           2             4    8     1      -0.2657425769E+00       5    8    1        -0.1426689349E+02      0.3450373017E+02
          0                 3           2             4    8     1       0.1820442240E+00       4    8    1         0.9895033777E+01      0.2370241847E+02
          0                 4           2             4    8     1      -0.2639714356E+00       4    8    1        -0.1474059767E+02      0.3571243968E+02
          0                 5           2             4    8     1       0.1050429085E-01       4    8    1         0.6150373626E+00      0.1102888213E+01
          0                 6           2             4    8     1      -0.1295279274E-03       4    8    1        -0.7951221598E-02      0.1453450192E-01
          0                 7           1             4    8     1      -0.1904995831E-05       4    8    1        -0.1169384532E-03      0.2137657840E-03

    ------------------------------------------------
       NWT REQUIRED            7 OUTER ITERATIONS 
       AND A TOTAL OF         13 INNER ITERATIONS.
    ------------------------------------------------

 NO OUTPUT CONTROL FOR STRESS PERIOD    8   TIME STEP   16
 
 SOLVING FOR HEAD 
                                                   Max.-Head-Change                         Max.-Flux-Residual
  Residual-Control   Outer-Iter.   Inner-Iter.     Column Row Layer    Maximum-Head-Change  Column Row Layer    Maximum-Flux-Residual          L2-NORM 
          0                 1           2             4    5     1       0.6168646393E-01       4    5    1         0.3368358737E+01      0.6737974174E+01
          0                 2           2             4    7     1      -0.2642359995E+00       5    8    1        -0.1431335645E+02      0.3460000996E+02
          0                 3           2             4    6     1       0.1811680255E+00       5    6    1         0.9888637872E+01      0.2353228748E+02
          0                 4           2             4    6     1      -0.2631262723E+00       5    6    1        -0.1473636085E+02      0.3558849879E+02
          0                 5           2             4    6     1       0.1046895863E-01       5    6    1         0.6095096546E+00      0.9333405915E+00
          0                 6           2             4    6     1      -0.1290909376E-03       5    6    1        -0.7808309225E-02      0.1234415893E-01
          0                 7           1             4    6     1      -0.1898569699E-05       5    6    1        -0.1148370588E-03      0.1815220389E-03

    ------------------------------------------------
       NWT REQUIRED            7 OUTER ITERATIONS 
       AND A TOTAL OF         13 INNER ITERATIONS.
    ------------------------------------------------

 NO OUTPUT CONTROL FOR STRESS PERIOD    8   TIME STEP   17
 
 SOLVING FOR HEAD 
                                                   Max.-Head-Change                         Max.-Flux-Residual
  Residual-Control   Outer-Iter.   Inner-Iter.     Column Row Layer    Maximum-Head-Change  Column Row Layer    Maximum-Flux-Residual          L2-NORM 
          0                 1           2             5    8     1       0.5814601883E-01       5    8    1         0.3183055686E+01      0.6350801789E+01
          0                 2           2             4    7     1      -0.2644456656E+00       5    8    1        -0.1435783182E+02      0.3469280572E+02
          0                 3           2             4    6     1       0.1813386874E+00       4    6    1         0.9882100078E+01      0.2336775359E+02
          0                 4           2             4    6     1      -0.2632069995E+00       4    6    1        -0.1474414152E+02      0.3546552026E+02
          0                 5           2             4    6     1       0.1040399410E-01       4    6    1         0.6112055665E+00      0.7321453191E+00
          0                 6           2             4    6     1      -0.1282893653E-03       4    6    1        -0.7902503929E-02      0.1001818467E-01
          0                 7           1             4    6     1      -0.1886783266E-05       4    6    1        -0.1162219810E-03      0.1473059520E-03

    ------------------------------------------------
       NWT REQUIRED            7 OUTER ITERATIONS 
       AND A TOTAL OF         13 INNER ITERATIONS.
    ------------------------------------------------

 NO OUTPUT CONTROL FOR STRESS PERIOD    8   TIME STEP   18
 
 SOLVING FOR HEAD 
                                                   Max.-Head-Change                         Max.-Flux-Residual
  Residual-Control   Outer-Iter.   Inner-Iter.     Column Row Layer    Maximum-Head-Change  Column Row Layer    Maximum-Flux-Residual          L2-NORM 
          0                 1           2             5    8     1       0.6583702030E-01       5    8    1         0.3604526950E+01      0.6255149826E+01
          0                 2           2             4    7     1      -0.2645367056E+00       5    8    1        -0.1439997939E+02      0.3478219082E+02
          0                 3           2             4    6     1       0.1814610496E+00       4    6    1         0.9888923054E+01      0.2337542468E+02
          0                 4           2             4    6     1      -0.2632867462E+00       4    6    1        -0.1474033103E+02      0.3546405930E+02
          0                 5           2             4    6     1       0.1047599882E-01       4    6    1         0.6154970756E+00      0.7357664163E+00
          0                 6           2             4    6     1      -0.1291772537E-03       4    6    1        -0.7955892411E-02      0.1006526543E-01
          0                 7           1             4    6     1      -0.1899841528E-05       4    6    1        -0.1170071716E-03      0.1480220342E-03

    ------------------------------------------------
       NWT REQUIRED            7 OUTER ITERATIONS 
       AND A TOTAL OF         13 INNER ITERATIONS.
    ------------------------------------------------

 NO OUTPUT CONTROL FOR STRESS PERIOD    8   TIME STEP   19
 
 SOLVING FOR HEAD 
                                                   Max.-Head-Change                         Max.-Flux-Residual
  Residual-Control   Outer-Iter.   Inner-Iter.     Column Row Layer    Maximum-Head-Change  Column Row Layer    Maximum-Flux-Residual          L2-NORM 
          0                 1           2             5    8     1       0.7313624246E-01       5    8    1         0.4004239575E+01      0.6422292920E+01
          0                 2           2             4    6     1      -0.2647357265E+00       5    8    1        -0.1443995080E+02      0.3486823262E+02
          0                 3           2             4    6     1       0.1815470934E+00       4    6    1         0.9893695109E+01      0.2338209879E+02
          0                 4           2             4    6     1      -0.2632932721E+00       4    6    1        -0.1474065992E+02      0.3546438901E+02
          0                 5           2             4    6     1       0.1047625842E-01       4    6    1         0.6155020025E+00      0.7357741638E+00
          0                 6           2             4    6     1      -0.1291804545E-03       4    6    1        -0.7955850126E-02      0.1006518698E-01
          0                 7           1             4    6     1      -0.1899888799E-05       4    6    1        -0.1170065607E-03      0.1479925248E-03

    ------------------------------------------------
       NWT REQUIRED            7 OUTER ITERATIONS 
       AND A TOTAL OF         13 INNER ITERATIONS.
    ------------------------------------------------

 NO OUTPUT CONTROL FOR STRESS PERIOD    8   TIME STEP   20
 
 SOLVING FOR HEAD 
                                                   Max.-Head-Change                         Max.-Flux-Residual
  Residual-Control   Outer-Iter.   Inner-Iter.     Column Row Layer    Maximum-Head-Change  Column Row Layer    Maximum-Flux-Residual          L2-NORM 
          0                 1           2             5    8     1       0.8006863627E-01       5    8    1         0.4383589488E+01      0.6796940371E+01
          0                 2           2             4    7     1      -0.2647856120E+00       5    8    1        -0.1447788570E+02      0.3495138066E+02
          0                 3           2             4    7     1       0.1717284732E+00       5    8    1         0.9492957401E+01      0.2321312125E+02
          0                 4           2             4    7     1      -0.2544049682E+00       5    8    1        -0.1442766216E+02      0.3533901962E+02
          0                 5           2             4    7     1       0.3136534533E-02       5    6    1         0.1828178047E+00      0.4478189086E+00
          0                 6           1             4    7     1       0.4612968317E-04       5    8    1         0.2693678672E-02      0.6592034217E-02

    ------------------------------------------------
       NWT REQUIRED            6 OUTER ITERATIONS 
       AND A TOTAL OF         11 INNER ITERATIONS.
    ------------------------------------------------

 NO OUTPUT CONTROL FOR STRESS PERIOD    8   TIME STEP   21
 
 SOLVING FOR HEAD 
                                                   Max.-Head-Change                         Max.-Flux-Residual
  Residual-Control   Outer-Iter.   Inner-Iter.     Column Row Layer    Maximum-Head-Change  Column Row Layer    Maximum-Flux-Residual          L2-NORM 
          0                 1           2             5    8     1       0.8665730149E-01       5    8    1         0.4743870297E+01      0.7320031574E+01
          0                 2           2             4    7     1      -0.2649413061E+00       5    8    1        -0.1451391347E+02      0.3503174389E+02
          0                 3           2             4    7     1       0.1717394229E+00       5    8    1         0.9495496577E+01      0.2321876280E+02
          0                 4           2             4    7     1      -0.2544059452E+00       5    8    1        -0.1442776760E+02      0.3533925108E+02
          0                 5           2             4    7     1       0.3136546613E-02       5    6    1         0.1828195585E+00      0.4478216826E+00
          0                 6           1             4    7     1       0.4612986105E-04       5    8    1         0.2693697662E-02      0.6592073097E-02

    ------------------------------------------------
       NWT REQUIRED            6 OUTER ITERATIONS 
       AND A TOTAL OF         11 INNER ITERATIONS.
    ------------------------------------------------

 NO OUTPUT CONTROL FOR STRESS PERIOD    8   TIME STEP   22
 
 SOLVING FOR HEAD 
                                                   Max.-Head-Change                         Max.-Flux-Residual
  Residual-Control   Outer-Iter.   Inner-Iter.     Column Row Layer    Maximum-Head-Change  Column Row Layer    Maximum-Flux-Residual          L2-NORM 
          0                 1           2             5    8     1       0.9292372900E-01       5    8    1         0.5086285065E+01      0.7940285955E+01
          0                 2           2             4    7     1      -0.2651151652E+00       5    8    1        -0.1454815447E+02      0.3510942978E+02
          0                 3           2             4    7     1       0.1717516742E+00       5    8    1         0.9497909631E+01      0.2322407888E+02
          0                 4           2             4    7     1      -0.2544070795E+00       5    8    1        -0.1442786779E+02      0.3533937812E+02
          0                 5           2             4    7     1       0.3136560609E-02       4    6    1         0.1828128217E+00      0.4478437693E+00
          0                 6           1             4    7     1       0.4613006615E-04       5    8    1         0.2693715645E-02      0.6601773757E-02

    ------------------------------------------------
       NWT REQUIRED            6 OUTER ITERATIONS 
       AND A TOTAL OF         11 INNER ITERATIONS.
    ------------------------------------------------

 NO OUTPUT CONTROL FOR STRESS PERIOD    8   TIME STEP   23
 
 SOLVING FOR HEAD 
                                                   Max.-Head-Change                         Max.-Flux-Residual
  Residual-Control   Outer-Iter.   Inner-Iter.     Column Row Layer    Maximum-Head-Change  Column Row Layer    Maximum-Flux-Residual          L2-NORM 
          0                 1           2             5    8     1       0.9888802306E-01       5    8    1         0.5411957351E+01      0.8619023136E+01
          0                 2           2             4    7     1      -0.2653053730E+00       5    8    1        -0.1458072106E+02      0.3518454299E+02
          0                 3           2             4    7     1       0.1717650978E+00       5    8    1         0.9500204501E+01      0.2322934220E+02
          0                 4           2             4    7     1      -0.2544083569E+00       5    8    1        -0.1442796305E+02      0.3533959111E+02
          0                 5           2             4    7     1       0.3136576264E-02       4    6    1         0.1828142813E+00      0.4478433550E+00
          0                 6           1             4    7     1       0.4613029444E-04       5    8    1         0.2693732738E-02      0.6602109177E-02

    ------------------------------------------------
       NWT REQUIRED            6 OUTER ITERATIONS 
       AND A TOTAL OF         11 INNER ITERATIONS.
    ------------------------------------------------

 NO OUTPUT CONTROL FOR STRESS PERIOD    8   TIME STEP   24
 
 SOLVING FOR HEAD 
                                                   Max.-Head-Change                         Max.-Flux-Residual
  Residual-Control   Outer-Iter.   Inner-Iter.     Column Row Layer    Maximum-Head-Change  Column Row Layer    Maximum-Flux-Residual          L2-NORM 
          0                 1           2             5    8     1       0.1045685421E+00       5    8    1         0.5721914030E+01      0.9329136545E+01
          0                 2           2             4    7     1      -0.2655102235E+00       5    8    1        -0.1461171597E+02      0.3525718398E+02
          0                 3           2             4    7     1       0.1717795723E+00       5    8    1         0.9502388553E+01      0.2323442655E+02
          0                 4           2             4    7     1      -0.2544097642E+00       5    8    1        -0.1442805373E+02      0.3533979679E+02
          0                 5           2             4    7     1       0.3136593636E-02       4    6    1         0.1828002629E+00      0.4478428262E+00
          0                 6           1             4    7     1       0.4613054984E-04       5    8    1         0.2693748150E-02      0.6602436291E-02

    ------------------------------------------------
       NWT REQUIRED            6 OUTER ITERATIONS 
       AND A TOTAL OF         11 INNER ITERATIONS.
    ------------------------------------------------

 NO OUTPUT CONTROL FOR STRESS PERIOD    8   TIME STEP   25
 
 SOLVING FOR HEAD 
                                                   Max.-Head-Change                         Max.-Flux-Residual
  Residual-Control   Outer-Iter.   Inner-Iter.     Column Row Layer    Maximum-Head-Change  Column Row Layer    Maximum-Flux-Residual          L2-NORM 
          0                 1           2             5    8     1       0.1099830011E+00       5    8    1         0.6017134471E+01      0.1005233827E+02
          0                 2           2             4    7     1      -0.2657281805E+00       5    8    1        -0.1464123716E+02      0.3532745133E+02
          0                 3           2             4    7     1       0.1717949884E+00       5    8    1         0.9504468377E+01      0.2323934504E+02
          0                 4           2             4    7     1      -0.2544112895E+00       5    8    1        -0.1442814003E+02      0.3533999981E+02
          0                 5           2             4    7     1       0.3136612460E-02       4    6    1         0.1828016118E+00      0.4478449578E+00
          0                 6           1             4    7     1       0.4613082685E-04       5    8    1         0.2693763602E-02      0.6602462619E-02

    ------------------------------------------------
       NWT REQUIRED            6 OUTER ITERATIONS 
       AND A TOTAL OF         11 INNER ITERATIONS.
    ------------------------------------------------

 NO OUTPUT CONTROL FOR STRESS PERIOD    8   TIME STEP   26
 
 SOLVING FOR HEAD 
                                                   Max.-Head-Change                         Max.-Flux-Residual
  Residual-Control   Outer-Iter.   Inner-Iter.     Column Row Layer    Maximum-Head-Change  Column Row Layer    Maximum-Flux-Residual          L2-NORM 
          0                 1           2             5    8     1       0.1151473090E+00       5    8    1         0.6298519332E+01      0.1077649007E+02
          0                 2           2             5    8     1      -0.2661818292E+00       5    8    1        -0.1466937470E+02      0.3539544083E+02
          0                 3           2             4    7     1       0.1718112425E+00       5    8    1         0.9506450763E+01      0.2324406509E+02
          0                 4           2             4    7     1      -0.2544129213E+00       5    8    1        -0.1442822231E+02      0.3534017022E+02
          0                 5           2             4    7     1       0.3136632586E-02       4    7    1         0.1827981950E+00      0.4478513657E+00
          0                 6           1             4    7     1       0.4613112257E-04       5    8    1         0.2693777009E-02      0.6605037520E-02

    ------------------------------------------------
       NWT REQUIRED            6 OUTER ITERATIONS 
       AND A TOTAL OF         11 INNER ITERATIONS.
    ------------------------------------------------

 NO OUTPUT CONTROL FOR STRESS PERIOD    8   TIME STEP   27
 
 SOLVING FOR HEAD 
                                                   Max.-Head-Change                         Max.-Flux-Residual
  Residual-Control   Outer-Iter.   Inner-Iter.     Column Row Layer    Maximum-Head-Change  Column Row Layer    Maximum-Flux-Residual          L2-NORM 
          0                 1           2             5    8     1       0.2017559975E+00       5    8    1         0.1107791048E+02      0.1454989590E+02
          0                 2           2             4    7     1      -0.2661511179E+00       5    6    1        -0.1452840262E+02      0.3345988793E+02
          0                 3           2             4    7     1       0.1717855605E+00       5    6    1         0.9496550717E+01      0.2158630546E+02
          0                 4           2             4    7     1      -0.2543957555E+00       5    6    1        -0.1442782826E+02      0.3438840354E+02
          0                 5           2             5    8     1      -0.1048314842E+00       5    8    1        -0.6294669337E+01      0.6307934443E+01
          0                 6           2             5    8     1      -0.2467295564E-01       5    8    1        -0.1480176260E+01      0.1480187640E+01
          0                 7           1             5    8     1       0.3046861297E-03       5    8    1         0.1880634472E-01      0.1889763888E-01
          0                 8           1             5    8     1       0.4475175509E-05       5    8    1         0.2776254394E-03      0.2846374058E-03

    ------------------------------------------------
       NWT REQUIRED            8 OUTER ITERATIONS 
       AND A TOTAL OF         14 INNER ITERATIONS.
    ------------------------------------------------

 NO OUTPUT CONTROL FOR STRESS PERIOD    8   TIME STEP   28
 
 SOLVING FOR HEAD 
                                                   Max.-Head-Change                         Max.-Flux-Residual
  Residual-Control   Outer-Iter.   Inner-Iter.     Column Row Layer    Maximum-Head-Change  Column Row Layer    Maximum-Flux-Residual          L2-NORM 
          0                 1           2             5    8     1       0.5883559965E+00       5    8    1         0.3242486470E+02      0.3396502555E+02
          0                 2           2             4    7     1      -0.2663207350E+00       5    6    1        -0.1456232886E+02      0.3235028128E+02
          0                 3           2             4    7     1       0.1718384397E+00       5    6    1         0.9498938543E+01      0.2295927896E+02
          0                 4           2             4    7     1      -0.2543787034E+00       5    6    1        -0.1442792686E+02      0.3370858812E+02
          0                 5           2             5    8     1      -0.8684297840E-01       5    8    1        -0.4932850327E+01      0.4949131199E+01
          0                 6           2             5    8     1      -0.4181118025E-01       5    8    1        -0.2372250794E+01      0.2372262488E+01
          0                 7           2             5    8     1      -0.2013009667E-01       5    8    1        -0.1142038629E+01      0.1142053811E+01
          0                 8           2             5    8     1      -0.9691590333E-02       5    8    1        -0.5498224009E+00      0.5498304106E+00
          0                 9           1             5    8     1      -0.4665948346E-02       5    8    1        -0.2647051941E+00      0.2647090809E+00
          0                10           1             5    8     1      -0.2246365725E-02       5    8    1        -0.1274379102E+00      0.1274397829E+00
                                                   Max.-Head-Change                         Max.-Flux-Residual
  Residual-Control   Outer-Iter.   Inner-Iter.     Column Row Layer    Maximum-Head-Change  Column Row Layer    Maximum-Flux-Residual          L2-NORM 
          0                11           1             5    8     1      -0.1081475398E-02       5    8    1        -0.6135226840E-01      0.6135317004E-01
          0                12           1             5    8     1      -0.5206531014E-03       5    8    1        -0.2953645136E-01      0.2953688544E-01
          0                13           1             5    8     1      -0.2506547313E-03       5    8    1        -0.1421941316E-01      0.1421962214E-01
          0                14           1             5    8     1      -0.1206699084E-03       5    8    1        -0.6845429100E-02      0.6845529708E-02
          0                15           1             5    8     1      -0.5809218193E-04       5    8    1        -0.3295454484E-02      0.3295502921E-02

    ------------------------------------------------
       NWT REQUIRED           15 OUTER ITERATIONS 
       AND A TOTAL OF         23 INNER ITERATIONS.
    ------------------------------------------------

 NO OUTPUT CONTROL FOR STRESS PERIOD    8   TIME STEP   29
 
 SOLVING FOR HEAD 
                                                   Max.-Head-Change                         Max.-Flux-Residual
  Residual-Control   Outer-Iter.   Inner-Iter.     Column Row Layer    Maximum-Head-Change  Column Row Layer    Maximum-Flux-Residual          L2-NORM 
          0                 1           2             5    8     1       0.5974380810E+00       5    8    1         0.3287278927E+02      0.3468774525E+02
          0                 2           2             4    7     1      -0.2666366121E+00       5    6    1        -0.1459552098E+02      0.3246570658E+02
          0                 3           2             4    7     1       0.1718639846E+00       5    6    1         0.9501275936E+01      0.2301057936E+02
          0                 4           2             4    7     1      -0.2543807882E+00       5    6    1        -0.1442802362E+02      0.3369453479E+02
          0                 5           2             5    8     1      -0.8641173573E-01       5    8    1        -0.4908745248E+01      0.4925107565E+01
          0                 6           2             5    8     1      -0.4160007208E-01       5    8    1        -0.2360445412E+01      0.2360457100E+01
          0                 7           2             5    8     1      -0.2002678110E-01       5    8    1        -0.1136259893E+01      0.1136275068E+01
          0                 8           2             5    8     1      -0.9641041921E-02       5    8    1        -0.5469944773E+00      0.5470024836E+00
          0                 9           1             5    8     1      -0.4641223488E-02       5    8    1        -0.2633216748E+00      0.2633255596E+00
          0                10           1             5    8     1      -0.2234275120E-02       5    8    1        -0.1267612223E+00      0.1267630939E+00
                                                   Max.-Head-Change                         Max.-Flux-Residual
  Residual-Control   Outer-Iter.   Inner-Iter.     Column Row Layer    Maximum-Head-Change  Column Row Layer    Maximum-Flux-Residual          L2-NORM 
          0                11           1             5    8     1      -0.1075564499E-02       5    8    1        -0.6102138107E-01      0.6102228211E-01
          0                12           1             5    8     1      -0.5177640632E-03       5    8    1        -0.2937469415E-01      0.2937512794E-01
          0                13           1             5    8     1      -0.2492430055E-03       5    8    1        -0.1414035586E-01      0.1414056473E-01
          0                14           1             5    8     1      -0.1199802278E-03       5    8    1        -0.6806799685E-02      0.6806900334E-02
          0                15           1             5    8     1      -0.5775532286E-04       5    8    1        -0.3276583485E-02      0.3276632148E-02

    ------------------------------------------------
       NWT REQUIRED           15 OUTER ITERATIONS 
       AND A TOTAL OF         23 INNER ITERATIONS.
    ------------------------------------------------

 NO OUTPUT CONTROL FOR STRESS PERIOD    8   TIME STEP   30



 STREAM LISTING     PERIOD      8   STEP       30

 LAYER ROW COL. STREAM  RCH.  FLOW INTO     FLOW TO   FLOW OUT OF   OVRLND.     DIRECT     STREAM       STREAM     STREAM     STREAM   STREAMBED  STREAMBED
                SEG.NO.  NO.  STRM. RCH.    AQUIFER    STRM. RCH.    RUNOFF     PRECIP       ET          HEAD       DEPTH      WIDTH   CONDCTNC.   GRADIENT

   1    1    1     1     1    5.6250E+01  3.5874E-01   5.5891E+01  0.000E+00  0.000E+00  0.000E+00  1.09453E+03  1.479E+00  1.780E+01  8.010E-02  1.493E+00
   1    2    2     1     2    5.5891E+01  5.5550E-01   5.5335E+01  0.000E+00  0.000E+00  0.000E+00  1.08953E+03  1.473E+00  1.774E+01  1.242E-01  1.491E+00
   1    3    3     1     3    5.5335E+01  4.7368E-01   5.4862E+01  0.000E+00  0.000E+00  0.000E+00  1.08389E+03  1.467E+00  1.767E+01  1.060E-01  1.489E+00
   1    3    4     1     4    5.4862E+01  4.3613E-01   5.4426E+01  0.000E+00  0.000E+00  0.000E+00  1.07887E+03  1.461E+00  1.762E+01  9.777E-02  1.487E+00
   1    4    5     2     1    5.2426E+01  3.8056E-01   5.2045E+01  0.000E+00  0.000E+00  0.000E+00  1.07381E+03  1.879E+00  1.200E+01  7.800E-02  1.626E+00
   1    5    6     2     2    5.2045E+01  2.9230E-01   5.1753E+01  0.000E+00  0.000E+00  0.000E+00  1.06838E+03  1.872E+00  1.200E+01  6.000E-02  1.624E+00
   1    6    6     2     3    5.1753E+01  2.9192E-01   5.1461E+01  0.000E+00  0.000E+00  0.000E+00  1.06366E+03  1.865E+00  1.200E+01  6.000E-02  1.622E+00
   1    7    6     2     4    5.1461E+01  2.9154E-01   5.1169E+01  0.000E+00  0.000E+00  0.000E+00  1.05893E+03  1.859E+00  1.200E+01  6.000E-02  1.620E+00
   1    8    6     2     5    5.1169E+01  2.9116E-01   5.0878E+01  0.000E+00  0.000E+00  0.000E+00  1.05421E+03  1.853E+00  1.200E+01  6.000E-02  1.618E+00
   1    3    5     3     1    2.0000E+00  2.8252E-01   1.7175E+00  0.000E+00  0.000E+00  0.000E+00  1.07555E+03  1.909E+00  9.636E+00  7.227E-02  1.955E+00
   1    3    6     3     2    1.7175E+00  2.4905E-01   1.4684E+00  0.000E+00  0.000E+00  0.000E+00  1.07264E+03  1.727E+00  8.909E+00  6.682E-02  1.864E+00
   1    3    7     3     3    1.4684E+00  1.9718E-01   1.2712E+00  0.000E+00  0.000E+00  0.000E+00  1.06987E+03  1.555E+00  8.218E+00  5.547E-02  1.777E+00
   1    4    8     3     4    1.2712E+00  2.2567E-01   1.0456E+00  0.000E+00  0.000E+00  0.000E+00  1.06682E+03  1.364E+00  7.455E+00  6.709E-02  1.682E+00
   1    5    8     3     5    1.0456E+00  1.5790E-01   8.8768E-01  0.000E+00  0.000E+00  0.000E+00  1.06362E+03  1.164E+00  6.655E+00  4.991E-02  1.582E+00
   1    6    8     3     6    8.8768E-01  5.5980E-02   8.3170E-01  0.000E+00  0.000E+00  0.000E+00  1.06158E+03  1.036E+00  6.145E+00  1.844E-02  1.518E+00
   1    5   10     4     1    1.0000E+01  9.0919E-02   9.9091E+00  0.000E+00  0.000E+00  0.000E+00  1.07836E+03  6.368E-01  1.000E+01  2.500E-02  1.212E+00
   1    5    9     4     2    9.9091E+00  1.8158E-01   9.7275E+00  0.000E+00  0.000E+00  0.000E+00  1.07154E+03  6.315E-01  1.000E+01  5.000E-02  1.211E+00
   1    6    8     4     3    9.7275E+00  1.2689E-01   9.6006E+00  0.000E+00  0.000E+00  0.000E+00  1.06381E+03  6.256E-01  1.000E+01  3.500E-02  1.209E+00
   1    6    8     5     1    1.0432E+01  2.2686E-01   1.0205E+01  0.000E+00  0.000E+00  0.000E+00  1.05868E+03  6.790E-01  1.542E+01  6.166E-02  1.226E+00
   1    7    7     5     2    1.0205E+01  2.7894E-01   9.9265E+00  0.000E+00  0.000E+00  0.000E+00  1.05417E+03  6.732E-01  1.519E+01  7.594E-02  1.224E+00
   1    8    7     5     3    9.9265E+00  1.9221E-01   9.7343E+00  0.000E+00  0.000E+00  0.000E+00  1.04992E+03  6.676E-01  1.497E+01  5.241E-02  1.223E+00
   1    8    6     5     4    9.7343E+00  1.3577E-01   9.5985E+00  0.000E+00  0.000E+00  0.000E+00  1.04691E+03  6.637E-01  1.482E+01  3.706E-02  1.221E+00
   1    9    6     6     1    9.5985E+00  2.2097E-01   9.3776E+00  0.000E+00  0.000E+00  0.000E+00  1.04341E+03  6.828E-01  1.200E+01  6.000E-02  1.228E+00
   1   10    7     6     2    9.3776E+00  2.2039E-01   9.1572E+00  0.000E+00  0.000E+00  0.000E+00  1.03885E+03  6.732E-01  1.200E+01  6.000E-02  1.224E+00
   1   11    7     6     3    9.1572E+00  2.1981E-01   8.9374E+00  0.000E+00  0.000E+00  0.000E+00  1.03430E+03  6.636E-01  1.200E+01  6.000E-02  1.221E+00
   1   12    7     6     4    8.9374E+00  2.1923E-01   8.7181E+00  0.000E+00  0.000E+00  0.000E+00  1.02974E+03  6.539E-01  1.200E+01  6.000E-02  1.218E+00
   1   13    7     6     5    8.7181E+00 -1.2341E-01   8.8415E+00  0.000E+00  0.000E+00  0.000E+00  1.02656E+03  6.517E-01  1.200E+01  2.400E-01 -1.714E-01
   1   14    9     7     1    1.5000E+02  1.3364E+00   1.4866E+02  0.000E+00  0.000E+00  0.000E+00  1.03987E+03  2.288E+00  5.529E+01  5.593E-01  7.965E-01
   1   13    8     7     2    1.4866E+02  1.8291E+00   1.4683E+02  0.000E+00  0.000E+00  0.000E+00  1.03478E+03  2.279E+00  5.526E+01  6.148E-01  9.917E-01
   1   13    7     7     3    1.4683E+02  1.4603E+00   1.4537E+02  0.000E+00  0.000E+00  0.000E+00  1.02969E+03  2.271E+00  5.522E+01  5.585E-01  8.716E-01
   1   13    6     8     1    1.5422E+02  8.1691E-01   1.5340E+02  0.000E+00  0.000E+00  0.000E+00  1.02472E+03  2.843E+00  4.123E+01  4.201E-01  6.481E-01
   1   13    5     8     2    1.5340E+02  9.5975E-02   1.5330E+02  0.000E+00  0.000E+00  0.000E+00  1.01847E+03  2.840E+00  4.118E+01  4.197E-01  7.623E-02
   1   13    4     8     3    1.5330E+02 -2.6871E+00   1.5599E+02  0.000E+00  0.000E+00  0.000E+00  1.01222E+03  2.849E+00  4.131E+01  4.210E+00 -2.128E-01
   1   13    3     8     4    1.5599E+02 -3.8019E+00   1.5979E+02  0.000E+00  0.000E+00  0.000E+00  1.00600E+03  2.872E+00  4.164E+01  4.243E+00 -2.987E-01
   1   13    2     8     5    1.5979E+02 -2.6765E+00   1.6247E+02  0.000E+00  0.000E+00  0.000E+00  9.99768E+02  2.893E+00  4.196E+01  4.275E+00 -2.087E-01
   1   13    1     8     6    1.6247E+02 -2.0628E+00   1.6453E+02  0.000E+00  0.000E+00  0.000E+00  9.94784E+02  2.909E+00  4.219E+01  2.579E+00 -2.666E-01
   1    8    6     9     1    5.0878E+01  0.0000E+00   5.0878E+01  0.000E+00  0.000E+00  0.000E+00  1.08476E+03  6.014E+00  4.000E+00  0.000E+00  3.005E+00
   1    8    5     9     2    5.0878E+01  0.0000E+00   5.0878E+01  0.000E+00  0.000E+00  0.000E+00  1.08426E+03  6.014E+00  4.000E+00  0.000E+00  3.005E+00





UNSATURATED ZONE PACKAGE VOLUMETRIC BUDGET FOR  TIME STEP    30 STRESS PERIOD    8
  ------------------------------------------------------------------------------



     CUMULATIVE VOLUMES      L**3       RATES FOR THIS TIME STEP      L**3/T
     ------------------                 ------------------------

           IN:                                      IN:
           ---                                      ---
        INFILTRATION =  1303559865.1974          INFILTRATION =         169.3228

          OUT:                                     OUT:
          ----                                     ----
              UZF ET =   263997776.8772                UZF ET =          60.8175
        UZF RECHARGE =   377353646.1348          UZF RECHARGE =          41.6747

            IN - OUT =   662208442.1854              IN - OUT =          66.8306

          STORAGE:                                 STORAGE:
          --------                                 --------
      STORAGE CHANGE =   662210554.9380        STORAGE CHANGE =          66.8306

 PERCENT DISCREPANCY IS DIFFERENCE BETWEEN IN-OUT MINUS CHANGE IN STORAGE
 DIVIDED BY THE AVERAGE OF IN AND OUT TIMES 100

 PERCENT DISCREPANCY =          -0.00     PERCENT DISCREPANCY =           0.00






1
  VOLUMETRIC BUDGET FOR AGRICULTURAL FIELDS AT  END OF TIME STEP   30, STRESS PERIOD   8
  ------------------------------------------------------------------------------

     CUMULATIVE VOLUMES      L**3       RATES FOR THIS TIME STEP      L**3/T
     ------------------                 ------------------------

           IN:                                      IN:
           ---                                      ---
           AG WELLS      =   873524544.0000             AG WELLS      =         117.5962
      DIVERSION SEGMENTS =   414350816.0000        DIVERSION SEGMENTS =          50.8780
           GW IRRIGATION =           0.0000             GW IRRIGATION =           0.0000
           SW IRRIGATION =           0.0000             SW IRRIGATION =           0.0000
        SYSTEM LOSSES GW =           0.0000          SYSTEM LOSSES GW =           0.0000
        SYSTEM LOSSES SW =           0.0000          SYSTEM LOSSES SW =           0.0000

                TOTAL IN =  1287875328.0000                  TOTAL IN =         168.4742

          OUT:                                     OUT:
          ----                                     ----
           AG WELLS      =           0.0000             AG WELLS      =           0.0000
      DIVERSION SEGMENTS =           0.0000        DIVERSION SEGMENTS =           0.0000
           GW IRRIGATION =   873524544.0000             GW IRRIGATION =         117.5962
           SW IRRIGATION =   414358816.0000             SW IRRIGATION =          50.8790
        SYSTEM LOSSES GW =           0.0000          SYSTEM LOSSES GW =           0.0000
        SYSTEM LOSSES SW =           0.0000          SYSTEM LOSSES SW =           0.0000

               TOTAL OUT =  1287883392.0000                 TOTAL OUT =         168.4753

                IN - OUT =       -8064.0000                  IN - OUT =      -1.0071E-03

     PERCENT DISCREPANCY =          -0.00         PERCENT DISCREPANCY =          -0.00



1
  VOLUMETRIC BUDGET FOR ENTIRE MODEL AT END OF TIME STEP   30, STRESS PERIOD   8
  ------------------------------------------------------------------------------

     CUMULATIVE VOLUMES      L**3       RATES FOR THIS TIME STEP      L**3/T
     ------------------                 ------------------------

           IN:                                      IN:
           ---                                      ---
             STORAGE     =   954025024.0000               STORAGE     =         100.5722
       CONSTANT HEAD     =           0.0000         CONSTANT HEAD     =           0.0000
     HEAD DEP BOUNDS     =     5285018.0000       HEAD DEP BOUNDS     =           0.2858
      STREAM LEAKAGE     =   224238800.0000        STREAM LEAKAGE     =          12.1920
        UZF RECHARGE     =   377353600.0000          UZF RECHARGE     =          41.6747
               GW ET     =           0.0000                 GW ET     =           0.0000
     SURFACE LEAKAGE     =           0.0000       SURFACE LEAKAGE     =           0.0000
           AG WELLS      =           0.0000             AG WELLS      =           0.0000

                TOTAL IN =  1560902400.0000                  TOTAL IN =         154.7247

          OUT:                                     OUT:
          ----                                     ----
             STORAGE     =   479878720.0000               STORAGE     =          25.4901
       CONSTANT HEAD     =           0.0000         CONSTANT HEAD     =           0.0000
     HEAD DEP BOUNDS     =     5365272.5000       HEAD DEP BOUNDS     =           0.2882
      STREAM LEAKAGE     =   202067696.0000        STREAM LEAKAGE     =          11.3517
        UZF RECHARGE     =           0.0000          UZF RECHARGE     =           0.0000
               GW ET     =       56916.5898                 GW ET     =           0.0000
     SURFACE LEAKAGE     =           0.0000       SURFACE LEAKAGE     =           0.0000
           AG WELLS      =   873524544.0000             AG WELLS      =         117.5962

               TOTAL OUT =  1560893184.0000                 TOTAL OUT =         154.7263

                IN - OUT =        9216.0000                  IN - OUT =      -1.6022E-03

     PERCENT DISCREPANCY =           0.00         PERCENT DISCREPANCY =          -0.00






         TIME SUMMARY AT END OF TIME STEP   30 IN STRESS PERIOD    8
                    SECONDS     MINUTES      HOURS       DAYS        YEARS
                    -----------------------------------------------------------
   TIME STEP LENGTH  87667.      1461.1      24.352      1.0147     2.77799E-03
 STRESS PERIOD TIME 2.63000E+06  43833.      730.56      30.440     8.33397E-02
         TOTAL TIME 1.84964E+07 3.08274E+05  5137.9      214.08     0.58612    
1
1
                            STRESS PERIOD NO.    9, LENGTH =   2630000.    
                            -----------------------------------------------

                              NUMBER OF TIME STEPS =    30

                               MULTIPLIER FOR DELT =     1.000

                            INITIAL TIME STEP SIZE =   87666.66    

 REUSING NON-PARAMETER GHB CELLS FROM LAST STRESS PERIOD

      2 GHB CELLS

 REUSING STREAM SEGMENT DATA FROM LAST STRESS PERIOD



            AREAL INFILTRATION RATE
 READING ON UNIT   19 WITH FORMAT: (FREE)              

            1           2           3           4           5           6           7           8           9          10
 ........................................................................................................................
   1   1.0000E-10  2.0000E-10   0.000       0.000       0.000       0.000       0.000       0.000       0.000       0.000    
   2   2.0000E-10  1.0000E-10  2.0000E-10   0.000       0.000      8.0000E-10  8.0000E-10  5.0000E-10   0.000       0.000    
   3    0.000      5.0000E-10  1.0000E-10  1.0000E-10  8.0000E-10  8.0000E-10  5.0000E-10  5.0000E-10   0.000       0.000    
   4   8.0000E-10  5.0000E-10  1.0000E-10  1.0000E-10  1.0000E-10  1.0000E-10  1.0000E-10  1.0000E-10  2.0000E-10   0.000    
   5   8.0000E-10  5.0000E-10  1.0000E-10  1.0000E-10  1.0000E-10  1.0000E-10  1.0000E-10  1.0000E-10  1.0000E-10  1.0000E-10
   6   8.0000E-10  5.0000E-10  5.0000E-10  2.0000E-10  2.0000E-10  1.0000E-10  1.0000E-10  1.0000E-10  1.0000E-10  5.0000E-10
   7   8.0000E-10  5.0000E-10  5.0000E-10  2.0000E-10  2.0000E-10  1.0000E-10  1.0000E-10  2.0000E-10  2.0000E-10   0.000    
   8    0.000      5.0000E-10  5.0000E-10  2.0000E-10  2.0000E-10  1.0000E-10  1.0000E-10  2.0000E-10  5.0000E-10   0.000    
   9    0.000      5.0000E-10  5.0000E-10  2.0000E-10  2.0000E-10  1.0000E-10  1.0000E-10  2.0000E-10  5.0000E-10   0.000    
  10    0.000      5.0000E-10  5.0000E-10  2.0000E-10  2.0000E-10  1.0000E-10  1.0000E-10  2.0000E-10  5.0000E-10  8.0000E-10
  11    0.000      1.0000E-10  1.0000E-10  1.0000E-10  1.0000E-10  1.0000E-10  1.0000E-10  2.0000E-10  5.0000E-10   0.000    
  12   1.0000E-10  1.0000E-10  1.0000E-10  1.0000E-10  1.0000E-10  1.0000E-10  1.0000E-10  1.0000E-10  2.0000E-10   0.000    
  13   1.0000E-10  1.0000E-10  2.0000E-10  2.0000E-10  2.0000E-10  2.0000E-10  2.0000E-10  1.0000E-10  1.0000E-10   0.000    
  14    0.000      2.0000E-10  5.0000E-10  5.0000E-10  5.0000E-10  5.0000E-10  5.0000E-10  2.0000E-10  1.0000E-10   0.000    
  15    0.000       0.000      8.0000E-10  8.0000E-10  8.0000E-10  8.0000E-10   0.000       0.000       0.000       0.000    

                  ET RATE =  3.250000E-07

 USING ET EXTINCTION DEPTH FROM PREVIOUS STRESS PERIOD. CURRENT PERIOD IS:       9

 USING EXTINCTION WATER CONTENT FROM PREVIOUS STRESS PERIOD. CURRENT PERIOD IS:       9

 USING AIR ENTRY PRESSURE FROM PREVIOUS STRESS PERIOD. CURRENT PERIOD IS:       9

 USING ROOT PRESSURE HEAD FROM PREVIOUS STRESS PERIOD. CURRENT PERIOD IS:       9

 USING ROOT ACTIVITY FROM PREVIOUS STRESS PERIOD. CURRENT PERIOD IS:       9

 PROCESSING AG STRESS PERIOD DATA

 READING AG STRESS PERIOD DATA

 READING IRRIGATION SEGMENT

 READING IRRIGATION WELL

 READING SUPPLEMENTAL WELL

 END PROCESSING AG STRESS PERIOD DATA OPTIONS
 
 SOLVING FOR HEAD 
                                                   Max.-Head-Change                         Max.-Flux-Residual
  Residual-Control   Outer-Iter.   Inner-Iter.     Column Row Layer    Maximum-Head-Change  Column Row Layer    Maximum-Flux-Residual          L2-NORM 
          0                 1           2             5    8     1       0.5611016873E+00       5    8    1         0.3083438622E+02      0.3306985818E+02
          0                 2           2             5    8     1       0.2379794472E+00       5    8    1         0.1318982288E+02      0.1377533479E+02
          0                 3           2             5    8     1       0.1110893624E+00       5    8    1         0.6128498014E+01      0.6135056287E+01
          0                 4           2             5    8     1       0.5185694664E-01       5    8    1         0.2862666512E+01      0.2862682181E+01
          0                 5           2             5    8     1       0.2420699663E-01       5    8    1         0.1336241164E+01      0.1336246837E+01
          0                 6           2             5    8     1       0.1129990304E-01       5    8    1         0.6237664356E+00      0.6237687183E+00
          0                 7           1             5    8     1       0.5274829746E-02       5    8    1         0.2911764802E+00      0.2911775577E+00
          0                 8           1             5    8     1       0.2462306660E-02       5    8    1         0.1359221778E+00      0.1359226799E+00
          0                 9           1             5    8     1       0.1149412236E-02       5    8    1         0.6344890903E-01      0.6344914332E-01
          0                10           1             5    8     1       0.5365491172E-03       5    8    1         0.2961814846E-01      0.2961825778E-01
                                                   Max.-Head-Change                         Max.-Flux-Residual
  Residual-Control   Outer-Iter.   Inner-Iter.     Column Row Layer    Maximum-Head-Change  Column Row Layer    Maximum-Flux-Residual          L2-NORM 
          0                11           1             5    8     1       0.2504627529E-03       5    8    1         0.1382584269E-01      0.1382589374E-01
          0                12           1             5    8     1       0.1169167709E-03       5    8    1         0.6453945553E-02      0.6453970256E-02
          0                13           1             5    8     1       0.5457710243E-04       5    8    1         0.3012721415E-02      0.3012734341E-02

    ------------------------------------------------
       NWT REQUIRED           13 OUTER ITERATIONS 
       AND A TOTAL OF         19 INNER ITERATIONS.
    ------------------------------------------------

 NO OUTPUT CONTROL FOR STRESS PERIOD    9   TIME STEP    1
 
 SOLVING FOR HEAD 
                                                   Max.-Head-Change                         Max.-Flux-Residual
  Residual-Control   Outer-Iter.   Inner-Iter.     Column Row Layer    Maximum-Head-Change  Column Row Layer    Maximum-Flux-Residual          L2-NORM 
          0                 1           2             5    8     1       0.5013466721E+00       5    8    1         0.2734717359E+02      0.3289377244E+02
          0                 2           2             5    8     1       0.2376285769E+00       5    8    1         0.1295206777E+02      0.1524512978E+02
          0                 3           2             5    8     1       0.5685845469E-01       5    8    1         0.3148909336E+01      0.6113036891E+01
          0                 4           2             5    8     1       0.7937696018E-01       5    8    1         0.4299491933E+01      0.7807323621E+01
          0                 5           2             5    8     1       0.3962297378E-01       5    8    1         0.2143462207E+01      0.2993655075E+01
          0                 6           2             5    8     1       0.1216288517E-01       5    8    1         0.6606783803E+00      0.1056436425E+01
          0                 7           2             4    8     1      -0.2207767299E+00       4    7    1        -0.1217230896E+02      0.2955449473E+02
          0                 8           2             4    6     1       0.5553820589E-01       5    6    1         0.3286779243E+01      0.7707069327E+01
          0                 9           2             4    8     1      -0.9616225594E-01       5    7    1        -0.5454221480E+01      0.1125514536E+02
          0                10           2             5    7     1      -0.4873299912E-01       5    7    1        -0.2877886302E+01      0.4687757076E+01
                                                   Max.-Head-Change                         Max.-Flux-Residual
  Residual-Control   Outer-Iter.   Inner-Iter.     Column Row Layer    Maximum-Head-Change  Column Row Layer    Maximum-Flux-Residual          L2-NORM 
          0                11           2             5    7     1      -0.2427268781E-01       5    7    1        -0.1435616314E+01      0.2332961991E+01
          0                12           2             4    8     1      -0.1189741895E-01       4    8    1        -0.6551827758E+00      0.9162561589E+00
          0                13           2             4    8     1      -0.5924645512E-02       4    8    1        -0.3263495433E+00      0.4525117521E+00
          0                14           2             4    8     1      -0.2949539594E-02       4    8    1        -0.1625064869E+00      0.2235926205E+00
          0                15           2             4    8     1      -0.1468026472E-02       4    8    1        -0.8089851356E-01      0.1104942202E+00
          0                16           2             4    8     1      -0.7304770439E-03       4    8    1        -0.4026231954E-01      0.5460957249E-01
          0                17           2             4    8     1      -0.3633935532E-03       4    8    1        -0.2003321730E-01      0.2699238800E-01
          0                18           2             4    8     1      -0.1807384198E-03       4    8    1        -0.9965547745E-02      0.1334301057E-01
          0                19           1             4    8     1      -0.8987331349E-04       4    8    1        -0.4956268527E-02      0.6596343343E-02

    ------------------------------------------------
       NWT REQUIRED           19 OUTER ITERATIONS 
       AND A TOTAL OF         37 INNER ITERATIONS.
    ------------------------------------------------

 NO OUTPUT CONTROL FOR STRESS PERIOD    9   TIME STEP    2
 
 SOLVING FOR HEAD 
                                                   Max.-Head-Change                         Max.-Flux-Residual
  Residual-Control   Outer-Iter.   Inner-Iter.     Column Row Layer    Maximum-Head-Change  Column Row Layer    Maximum-Flux-Residual          L2-NORM 
          0                 1           2             4    8     1       0.6417369119E+00       4    8    1         0.3461408849E+02      0.5266350105E+02
          0                 2           2             4    6     1      -0.1566891564E+00       4    6    1        -0.8628464758E+01      0.1714242168E+02
          0                 3           2             4    8     1       0.2012261473E+00       4    8    1         0.1072438972E+02      0.2016073140E+02
          0                 4           2             4    7     1      -0.1476660933E+00       4    6    1        -0.8536970669E+01      0.1470706726E+02
          0                 5           2             5    6     1      -0.4792608713E-01       5    6    1        -0.2847394986E+01      0.4418786883E+01
          0                 6           2             5    6     1      -0.2467189659E-01       5    6    1        -0.1465165259E+01      0.2267694076E+01
          0                 7           2             5    6     1      -0.1269840367E-01       5    6    1        -0.7541966611E+00      0.1165287331E+01
          0                 8           2             5    6     1      -0.6534596663E-02       5    6    1        -0.3881609546E+00      0.5989446352E+00
          0                 9           2             5    6     1      -0.3362156608E-02       5    6    1        -0.1997396071E+00      0.3079103743E+00
          0                10           2             5    6     1      -0.1729627155E-02       5    6    1        -0.1027654180E+00      0.1583195016E+00
                                                   Max.-Head-Change                         Max.-Flux-Residual
  Residual-Control   Outer-Iter.   Inner-Iter.     Column Row Layer    Maximum-Head-Change  Column Row Layer    Maximum-Flux-Residual          L2-NORM 
          0                11           2             5    6     1      -0.8896678286E-03       5    6    1        -0.5286472408E-01      0.8141555234E-01
          0                12           2             5    6     1      -0.4575611100E-03       5    6    1        -0.2719108004E-01      0.4187307569E-01
          0                13           2             5    6     1      -0.2352993561E-03       5    6    1        -0.1398406330E-01      0.2153820942E-01
          0                14           2             5    6     1      -0.1209893116E-03       5    6    1        -0.7191032815E-02      0.1107962876E-01
          0                15           1             5    6     1      -0.6220595724E-04       5    6    1        -0.3697466921E-02      0.5700016925E-02

    ------------------------------------------------
       NWT REQUIRED           15 OUTER ITERATIONS 
       AND A TOTAL OF         29 INNER ITERATIONS.
    ------------------------------------------------

 NO OUTPUT CONTROL FOR STRESS PERIOD    9   TIME STEP    3
 
 SOLVING FOR HEAD 
                                                   Max.-Head-Change                         Max.-Flux-Residual
  Residual-Control   Outer-Iter.   Inner-Iter.     Column Row Layer    Maximum-Head-Change  Column Row Layer    Maximum-Flux-Residual          L2-NORM 
          0                 1           2             5    6     1       0.6322839226E+00       5    6    1         0.3435724190E+02      0.6054100289E+02
          0                 2           2             4    6     1      -0.1526677113E+00       4    6    1        -0.8652346075E+01      0.1615211638E+02
          0                 3           2             5    6     1       0.1962981819E+00       5    6    1         0.1055378318E+02      0.2127688213E+02
          0                 4           2             4    6     1      -0.1460504986E+00       4    6    1        -0.8527214129E+01      0.1246055294E+02
          0                 5           2             4    7     1      -0.4889794205E-01       4    7    1        -0.2844266434E+01      0.4694012491E+01
          0                 6           2             4    7     1      -0.2573613005E-01       4    7    1        -0.1496819279E+01      0.2395872284E+01
          0                 7           2             4    7     1      -0.1353902615E-01       4    7    1        -0.7877272747E+00      0.1225505076E+01
          0                 8           2             4    7     1      -0.7119140130E-02       4    7    1        -0.4143690951E+00      0.6278008590E+00
          0                 9           2             4    7     1      -0.3741697697E-02       4    7    1        -0.2178694501E+00      0.3220565356E+00
          0                10           2             4    7     1      -0.1965696611E-02       4    7    1        -0.1145004072E+00      0.1654251291E+00
                                                   Max.-Head-Change                         Max.-Flux-Residual
  Residual-Control   Outer-Iter.   Inner-Iter.     Column Row Layer    Maximum-Head-Change  Column Row Layer    Maximum-Flux-Residual          L2-NORM 
          0                11           2             4    7     1      -0.1032230909E-02       4    7    1        -0.6014852691E-01      0.8507223168E-01
          0                12           2             4    7     1      -0.5418211836E-03       4    7    1        -0.3158320483E-01      0.4379765313E-01
          0                13           2             4    7     1      -0.2842890703E-03       4    7    1        -0.1657703408E-01      0.2257107269E-01
          0                14           1             4    7     1      -0.1491062274E-03       4    7    1        -0.8697275399E-02      0.1164275234E-01
          0                15           1             4    7     1      -0.7817523823E-04       4    7    1        -0.4561332787E-02      0.6010728507E-02

    ------------------------------------------------
       NWT REQUIRED           15 OUTER ITERATIONS 
       AND A TOTAL OF         28 INNER ITERATIONS.
    ------------------------------------------------

 NO OUTPUT CONTROL FOR STRESS PERIOD    9   TIME STEP    4
 
 SOLVING FOR HEAD 
                                                   Max.-Head-Change                         Max.-Flux-Residual
  Residual-Control   Outer-Iter.   Inner-Iter.     Column Row Layer    Maximum-Head-Change  Column Row Layer    Maximum-Flux-Residual          L2-NORM 
          0                 1           2             4    7     1       0.6427743583E+00       4    7    1         0.3404740564E+02      0.6600762795E+02
          0                 2           2             4    7     1       0.1568844865E+00       4    6    1        -0.8758485009E+01      0.1709375670E+02
          0                 3           2             4    7     1       0.2062720620E+00       4    7    1         0.1083759430E+02      0.2275717131E+02
          0                 4           2             4    6     1      -0.1454094853E+00       4    6    1        -0.8518783232E+01      0.1286341960E+02
          0                 5           2             5    7     1      -0.3136489165E-01       5    6    1        -0.1734784371E+01      0.3576864592E+01
          0                 6           2             5    7     1      -0.1567185188E-01       5    7    1        -0.8605595300E+00      0.1686827695E+01
          0                 7           2             5    7     1      -0.7810011007E-02       5    7    1        -0.4298998800E+00      0.8342354400E+00
          0                 8           2             5    7     1      -0.3888588742E-02       5    7    1        -0.2142216654E+00      0.4150705640E+00
          0                 9           2             5    7     1      -0.1935560106E-02       5    7    1        -0.1066566247E+00      0.2066814667E+00
          0                10           2             5    7     1      -0.9633615247E-03       5    7    1        -0.5308763833E-01      0.1029393414E+00
                                                   Max.-Head-Change                         Max.-Flux-Residual
  Residual-Control   Outer-Iter.   Inner-Iter.     Column Row Layer    Maximum-Head-Change  Column Row Layer    Maximum-Flux-Residual          L2-NORM 
          0                11           2             5    7     1      -0.4794829807E-03       5    7    1        -0.2642222641E-01      0.5127925285E-01
          0                12           2             5    7     1      -0.2386548675E-03       5    7    1        -0.1315066059E-01      0.2554942541E-01
          0                13           2             4    7     1      -0.1201575914E-03       5    7    1        -0.6545446334E-02      0.1273202336E-01
          0                14           1             4    7     1      -0.6065008748E-04       4    7    1        -0.3301206065E-02      0.6345810206E-02

    ------------------------------------------------
       NWT REQUIRED           14 OUTER ITERATIONS 
       AND A TOTAL OF         27 INNER ITERATIONS.
    ------------------------------------------------

 NO OUTPUT CONTROL FOR STRESS PERIOD    9   TIME STEP    5
 
 SOLVING FOR HEAD 
                                                   Max.-Head-Change                         Max.-Flux-Residual
  Residual-Control   Outer-Iter.   Inner-Iter.     Column Row Layer    Maximum-Head-Change  Column Row Layer    Maximum-Flux-Residual          L2-NORM 
          0                 1           2             4    7     1       0.6230711370E+00       4    7    1         0.3282034989E+02      0.6588956204E+02
          0                 2           2             4    7     1       0.1500048101E+00       4    7    1         0.7978467428E+01      0.1488758083E+02
          0                 3           2             4    7     1       0.2029878315E+00       4    7    1         0.1066803638E+02      0.2208590044E+02
          0                 4           2             5    8     1      -0.1226390127E+00       5    8    1        -0.7241394700E+01      0.1089667773E+02
          0                 5           2             4    6     1      -0.4178176959E-01       4    6    1        -0.2292048516E+01      0.4333836337E+01
          0                 6           2             4    6     1      -0.2091478446E-01       4    6    1        -0.1146895276E+01      0.2098429491E+01
          0                 7           2             4    6     1      -0.1047352252E-01       4    6    1        -0.5741225149E+00      0.1049675265E+01
          0                 8           2             4    6     1      -0.5246806791E-02       4    6    1        -0.2875128385E+00      0.5272573947E+00
          0                 9           2             4    6     1      -0.2629364326E-02       4    6    1        -0.1440362130E+00      0.2650220885E+00
          0                10           2             4    6     1      -0.1318107292E-02       4    6    1        -0.7218357997E-01      0.1332494418E+00
                                                   Max.-Head-Change                         Max.-Flux-Residual
  Residual-Control   Outer-Iter.   Inner-Iter.     Column Row Layer    Maximum-Head-Change  Column Row Layer    Maximum-Flux-Residual          L2-NORM 
          0                11           2             4    6     1      -0.6609771181E-03       4    6    1        -0.3618664773E-01      0.6701198065E-01
          0                12           2             4    6     1      -0.3315504102E-03       4    6    1        -0.1814650160E-01      0.3370817973E-01
          0                13           2             4    6     1      -0.1663536949E-03       4    6    1        -0.9102568583E-02      0.1695922540E-01
          0                14           1             4    6     1      -0.8348880658E-04       4    6    1        -0.4567239699E-02      0.8534078241E-02

    ------------------------------------------------
       NWT REQUIRED           14 OUTER ITERATIONS 
       AND A TOTAL OF         27 INNER ITERATIONS.
    ------------------------------------------------

 NO OUTPUT CONTROL FOR STRESS PERIOD    9   TIME STEP    6
 
 SOLVING FOR HEAD 
                                                   Max.-Head-Change                         Max.-Flux-Residual
  Residual-Control   Outer-Iter.   Inner-Iter.     Column Row Layer    Maximum-Head-Change  Column Row Layer    Maximum-Flux-Residual          L2-NORM 
          0                 1           2             4    6     1       0.6639127703E+00       4    6    1         0.3531963989E+02      0.6673853060E+02
          0                 2           2             4    6     1       0.1686779075E+00       4    6    1         0.9006617302E+01      0.1466100515E+02
          0                 3           2             4    6     1       0.2098689123E+00       4    6    1         0.1114941225E+02      0.2060331524E+02
          0                 4           2             4    8     1      -0.1361924856E+00       4    8    1        -0.7458130230E+01      0.1271191177E+02
          0                 5           2             5    7     1      -0.4923396766E-01       5    7    1        -0.2871317071E+01      0.4557275494E+01
          0                 6           2             5    7     1      -0.2162271845E-01       5    7    1        -0.1264767036E+01      0.1953371019E+01
          0                 7           2             5    6     1      -0.8300705272E-02       5    6    1        -0.4613941521E+00      0.7669026946E+00
          0                 8           2             5    6     1      -0.4070154664E-02       5    6    1        -0.2272043992E+00      0.3666671991E+00
          0                 9           2             5    6     1      -0.1993209391E-02       5    6    1        -0.1113986209E+00      0.1812760325E+00
          0                10           2             5    6     1      -0.9759976060E-03       5    6    1        -0.5455369751E-01      0.9001203821E-01
                                                   Max.-Head-Change                         Max.-Flux-Residual
  Residual-Control   Outer-Iter.   Inner-Iter.     Column Row Layer    Maximum-Head-Change  Column Row Layer    Maximum-Flux-Residual          L2-NORM 
          0                11           2             5    6     1      -0.4780560774E-03       5    6    1        -0.2671374799E-01      0.4472785906E-01
          0                12           2             4    7     1      -0.2371064498E-03       5    6    1        -0.1308530834E-01      0.2223332752E-01
          0                13           2             4    7     1      -0.1178375255E-03       4    7    1        -0.6501537859E-02      0.1105509707E-01
          0                14           1             4    7     1      -0.5857600823E-04       4    7    1        -0.3231183330E-02      0.5498512287E-02

    ------------------------------------------------
       NWT REQUIRED           14 OUTER ITERATIONS 
       AND A TOTAL OF         27 INNER ITERATIONS.
    ------------------------------------------------

 NO OUTPUT CONTROL FOR STRESS PERIOD    9   TIME STEP    7
 
 SOLVING FOR HEAD 
                                                   Max.-Head-Change                         Max.-Flux-Residual
  Residual-Control   Outer-Iter.   Inner-Iter.     Column Row Layer    Maximum-Head-Change  Column Row Layer    Maximum-Flux-Residual          L2-NORM 
          0                 1           2             4    6     1       0.6383505229E+00       4    6    1         0.3394797134E+02      0.6218698783E+02
          0                 2           2             4    6     1       0.1533417817E+00       4    6    1         0.8343931152E+01      0.1378403247E+02
          0                 3           2             4    6     1       0.2012794761E+00       4    6    1         0.1073826530E+02      0.1926833809E+02
          0                 4           2             4    8     1      -0.1250617558E+00       4    8    1        -0.7252841164E+01      0.1292556488E+02
          0                 5           2             5    8     1      -0.4747384970E-01       5    8    1        -0.2787079593E+01      0.4895586356E+01
          0                 6           2             5    8     1      -0.2461403285E-01       5    8    1        -0.1452399619E+01      0.2267515230E+01
          0                 7           2             5    8     1      -0.1273281362E-01       5    8    1        -0.7528788279E+00      0.1137677255E+01
          0                 8           2             5    8     1      -0.6579182655E-02       5    8    1        -0.3894133618E+00      0.5768946088E+00
          0                 9           2             5    8     1      -0.3397085707E-02       5    8    1        -0.2011943392E+00      0.2929760903E+00
          0                10           2             5    8     1      -0.1753076615E-02       5    8    1        -0.1038756183E+00      0.1488686152E+00
                                                   Max.-Head-Change                         Max.-Flux-Residual
  Residual-Control   Outer-Iter.   Inner-Iter.     Column Row Layer    Maximum-Head-Change  Column Row Layer    Maximum-Flux-Residual          L2-NORM 
          0                11           2             5    8     1      -0.9042524465E-03       5    8    1        -0.5360121343E-01      0.7567806968E-01
          0                12           2             5    8     1      -0.4662226967E-03       5    8    1        -0.2764599882E-01      0.3848781169E-01
          0                13           2             5    8     1      -0.2402851728E-03       5    8    1        -0.1425301255E-01      0.1958175425E-01
          0                14           1             5    8     1      -0.1237948791E-03       5    8    1        -0.7345348957E-02      0.9966506511E-02
          0                15           1             5    8     1      -0.6375750954E-04       5    8    1        -0.3784092304E-02      0.5074406824E-02

    ------------------------------------------------
       NWT REQUIRED           15 OUTER ITERATIONS 
       AND A TOTAL OF         28 INNER ITERATIONS.
    ------------------------------------------------

 NO OUTPUT CONTROL FOR STRESS PERIOD    9   TIME STEP    8
 
 SOLVING FOR HEAD 
                                                   Max.-Head-Change                         Max.-Flux-Residual
  Residual-Control   Outer-Iter.   Inner-Iter.     Column Row Layer    Maximum-Head-Change  Column Row Layer    Maximum-Flux-Residual          L2-NORM 
          0                 1           2             4    6     1       0.6064101330E+00       4    6    1         0.3243953571E+02      0.5464166553E+02
          0                 2           2             4    6     1       0.1365622817E+00       4    6    1         0.7495188491E+01      0.9553945347E+01
          0                 3           2             4    6     1       0.1921771946E+00       4    6    1         0.1029700508E+02      0.1751398640E+02
          0                 4           2             4    8     1      -0.1090013695E+00       4    8    1        -0.6294412205E+01      0.1210153140E+02
          0                 5           2             5    6     1      -0.4662867492E-01       5    6    1        -0.2730290906E+01      0.5807642778E+01
          0                 6           2             5    6     1      -0.2437722052E-01       5    6    1        -0.1428229231E+01      0.2794272083E+01
          0                 7           2             5    6     1      -0.1273609388E-01       5    6    1        -0.7465951950E+00      0.1426300870E+01
          0                 8           2             4    7     1      -0.6724947565E-02       5    6    1        -0.3900287839E+00      0.7341807830E+00
          0                 9           2             4    7     1      -0.3549847907E-02       4    7    1        -0.2059566769E+00      0.3786363648E+00
          0                10           2             4    7     1      -0.1872222397E-02       4    7    1        -0.1087039756E+00      0.1954931237E+00
                                                   Max.-Head-Change                         Max.-Flux-Residual
  Residual-Control   Outer-Iter.   Inner-Iter.     Column Row Layer    Maximum-Head-Change  Column Row Layer    Maximum-Flux-Residual          L2-NORM 
          0                11           2             4    7     1      -0.9867087335E-03       4    7    1        -0.5732541841E-01      0.1010336408E+00
          0                12           2             4    7     1      -0.5196822684E-03       4    7    1        -0.3020900996E-01      0.5226198437E-01
          0                13           2             4    7     1      -0.2735448446E-03       4    7    1        -0.1590911324E-01      0.2705535285E-01
          0                14           2             4    7     1      -0.1439066657E-03       4    7    1        -0.8373356520E-02      0.1401624863E-01
          0                15           1             4    7     1      -0.7566805103E-04       4    7    1        -0.4404707611E-02      0.7265879003E-02

    ------------------------------------------------
       NWT REQUIRED           15 OUTER ITERATIONS 
       AND A TOTAL OF         29 INNER ITERATIONS.
    ------------------------------------------------

 NO OUTPUT CONTROL FOR STRESS PERIOD    9   TIME STEP    9
 
 SOLVING FOR HEAD 
                                                   Max.-Head-Change                         Max.-Flux-Residual
  Residual-Control   Outer-Iter.   Inner-Iter.     Column Row Layer    Maximum-Head-Change  Column Row Layer    Maximum-Flux-Residual          L2-NORM 
          0                 1           2             4    6     1       0.5726964351E+00       4    6    1         0.3065179059E+02      0.5145827633E+02
          0                 2           2             4    6     1       0.1218668787E+00       4    6    1         0.6619009311E+01      0.7209390943E+01
          0                 3           2             4    6     1       0.1859887353E+00       4    6    1         0.9923564230E+01      0.1836546164E+02
          0                 4           2             5    7     1      -0.1224128275E+00       5    7    1        -0.7123669533E+01      0.1241639362E+02
          0                 5           2             4    8     1      -0.4587146981E-01       4    8    1        -0.2640833896E+01      0.5368982565E+01
          0                 6           2             4    8     1      -0.2439596815E-01       4    8    1        -0.1406072544E+01      0.2658554128E+01
          0                 7           2             4    8     1      -0.1295016465E-01       4    8    1        -0.7475477982E+00      0.1344342364E+01
          0                 8           2             4    8     1      -0.6863186373E-02       4    8    1        -0.3967328018E+00      0.6825836599E+00
          0                 9           2             4    8     1      -0.3631949481E-02       4    8    1        -0.2102128505E+00      0.3473357352E+00
          0                10           2             4    8     1      -0.1919466514E-02       4    8    1        -0.1112223442E+00      0.1770849331E+00
                                                   Max.-Head-Change                         Max.-Flux-Residual
  Residual-Control   Outer-Iter.   Inner-Iter.     Column Row Layer    Maximum-Head-Change  Column Row Layer    Maximum-Flux-Residual          L2-NORM 
          0                11           2             4    8     1      -0.1013220663E-02       4    8    1        -0.5877042342E-01      0.9044912703E-01
          0                12           2             4    8     1      -0.5342687465E-03       4    8    1        -0.3101806945E-01      0.4627734046E-01
          0                13           2             4    8     1      -0.2814436670E-03       4    8    1        -0.1635342040E-01      0.2371492176E-01
          0                14           2             4    8     1      -0.1481282712E-03       4    8    1        -0.8613574727E-02      0.1217060463E-01
          0                15           1             4    8     1      -0.7789936876E-04       4    8    1        -0.4532913769E-02      0.6254446571E-02

    ------------------------------------------------
       NWT REQUIRED           15 OUTER ITERATIONS 
       AND A TOTAL OF         29 INNER ITERATIONS.
    ------------------------------------------------

 NO OUTPUT CONTROL FOR STRESS PERIOD    9   TIME STEP   10
 
 SOLVING FOR HEAD 
                                                   Max.-Head-Change                         Max.-Flux-Residual
  Residual-Control   Outer-Iter.   Inner-Iter.     Column Row Layer    Maximum-Head-Change  Column Row Layer    Maximum-Flux-Residual          L2-NORM 
          0                 1           2             4    6     1       0.5117361246E+00       4    6    1         0.2731816895E+02      0.4933621403E+02
          0                 2           2             5    7     1      -0.1083191980E+00       5    7    1        -0.6151848165E+01      0.7356645418E+01
          0                 3           2             4    8     1       0.1362273301E+00       4    8    1         0.7212617230E+01      0.1588884019E+02
          0                 4           2             4    7     1      -0.1375940378E+00       4    7    1        -0.7457318857E+01      0.1537415868E+02
          0                 5           2             4    6     1      -0.5037432992E-01       4    6    1        -0.2932233684E+01      0.5014357713E+01
          0                 6           2             4    6     1      -0.2470526343E-01       4    6    1        -0.1442998706E+01      0.2276488619E+01
          0                 7           2             5    6     1      -0.1076148220E-01       5    6    1        -0.6056213616E+00      0.8903263832E+00
          0                 8           2             5    6     1      -0.5198983419E-02       5    6    1        -0.2940049249E+00      0.4180995221E+00
          0                 9           2             4    8     1      -0.2550650612E-02       4    8    1        -0.1422646865E+00      0.2027079294E+00
          0                10           2             4    8     1      -0.1252242437E-02       4    8    1        -0.6982165562E-01      0.9875288507E-01
                                                   Max.-Head-Change                         Max.-Flux-Residual
  Residual-Control   Outer-Iter.   Inner-Iter.     Column Row Layer    Maximum-Head-Change  Column Row Layer    Maximum-Flux-Residual          L2-NORM 
          0                11           2             4    8     1      -0.6150089246E-03       4    8    1        -0.3427840416E-01      0.4817007131E-01
          0                12           2             4    8     1      -0.3021633019E-03       4    8    1        -0.1683482578E-01      0.2351828372E-01
          0                13           2             4    8     1      -0.1485172958E-03       4    8    1        -0.8271127952E-02      0.1149353748E-01
          0                14           1             4    8     1      -0.7302874866E-04       4    8    1        -0.4065334021E-02      0.5622837350E-02

    ------------------------------------------------
       NWT REQUIRED           14 OUTER ITERATIONS 
       AND A TOTAL OF         27 INNER ITERATIONS.
    ------------------------------------------------

 NO OUTPUT CONTROL FOR STRESS PERIOD    9   TIME STEP   11
 
 SOLVING FOR HEAD 
                                                   Max.-Head-Change                         Max.-Flux-Residual
  Residual-Control   Outer-Iter.   Inner-Iter.     Column Row Layer    Maximum-Head-Change  Column Row Layer    Maximum-Flux-Residual          L2-NORM 
          0                 1           2             4    7     1       0.3781831224E+00       4    7    1         0.1980840034E+02      0.4466740135E+02
          0                 2           2             5    8     1      -0.1125001360E+00       5    8    1        -0.6318467452E+01      0.1022789107E+02
          0                 3           2             4    8     1       0.1326458509E+00       4    8    1         0.7040348512E+01      0.1528516136E+02
          0                 4           2             4    7     1      -0.1266238266E+00       5    8    1        -0.7287349092E+01      0.1615102499E+02
          0                 5           2             4    6     1      -0.4534529271E-01       4    6    1        -0.2503510475E+01      0.4473014768E+01
          0                 6           2             4    6     1      -0.2226056045E-01       4    6    1        -0.1241164179E+01      0.1609026710E+01
          0                 7           2             4    6     1      -0.1088561103E-01       4    6    1        -0.6091360574E+00      0.7406732264E+00
          0                 8           2             4    6     1      -0.5315463950E-02       4    6    1        -0.2978390192E+00      0.3589505901E+00
          0                 9           2             4    6     1      -0.2594139139E-02       4    6    1        -0.1454274162E+00      0.1751997194E+00
          0                10           2             4    6     1      -0.1265770352E-02       4    6    1        -0.7097155464E-01      0.8558097678E-01
                                                   Max.-Head-Change                         Max.-Flux-Residual
  Residual-Control   Outer-Iter.   Inner-Iter.     Column Row Layer    Maximum-Head-Change  Column Row Layer    Maximum-Flux-Residual          L2-NORM 
          0                11           2             4    6     1      -0.6175618592E-03       4    6    1        -0.3462864577E-01      0.4180582967E-01
          0                12           2             4    6     1      -0.3012937728E-03       4    6    1        -0.1689475654E-01      0.2042143031E-01
          0                13           2             4    6     1      -0.1469912672E-03       4    6    1        -0.8242387250E-02      0.9975363167E-02
          0                14           1             4    6     1      -0.7171127188E-04       4    6    1        -0.4021110167E-02      0.4872677455E-02

    ------------------------------------------------
       NWT REQUIRED           14 OUTER ITERATIONS 
       AND A TOTAL OF         27 INNER ITERATIONS.
    ------------------------------------------------

 NO OUTPUT CONTROL FOR STRESS PERIOD    9   TIME STEP   12
 
 SOLVING FOR HEAD 
                                                   Max.-Head-Change                         Max.-Flux-Residual
  Residual-Control   Outer-Iter.   Inner-Iter.     Column Row Layer    Maximum-Head-Change  Column Row Layer    Maximum-Flux-Residual          L2-NORM 
          0                 1           2             4    7     1       0.3789971043E+00       4    7    1         0.1986669921E+02      0.4415850918E+02
          0                 2           2             5    8     1      -0.1144843233E+00       5    8    1        -0.6412829568E+01      0.1079794767E+02
          0                 3           2             4    6     1       0.1320395194E+00       4    6    1         0.7038034256E+01      0.1487974653E+02
          0                 4           2             4    8     1      -0.1257529624E+00       5    8    1        -0.7294220584E+01      0.1543212526E+02
          0                 5           2             4    7     1      -0.5190217572E-01       4    7    1        -0.2979504791E+01      0.5256473268E+01
          0                 6           2             4    7     1      -0.2752852906E-01       4    7    1        -0.1588306529E+01      0.2509125962E+01
          0                 7           2             5    7     1      -0.1271014383E-01       5    7    1        -0.7523336857E+00      0.1125632514E+01
          0                 8           2             5    7     1      -0.6501231715E-02       5    7    1        -0.3881515761E+00      0.5035770642E+00
          0                 9           2             5    7     1      -0.3314693461E-02       5    7    1        -0.1984930264E+00      0.2487835681E+00
          0                10           2             5    7     1      -0.1688087850E-02       5    7    1        -0.1011933642E+00      0.1246458581E+00
                                                   Max.-Head-Change                         Max.-Flux-Residual
  Residual-Control   Outer-Iter.   Inner-Iter.     Column Row Layer    Maximum-Head-Change  Column Row Layer    Maximum-Flux-Residual          L2-NORM 
          0                11           2             5    7     1      -0.8593378580E-03       5    7    1        -0.5153279799E-01      0.6257879810E-01
          0                12           2             5    7     1      -0.4373806968E-03       5    7    1        -0.2623251758E-01      0.3144163622E-01
          0                13           2             5    7     1      -0.2225976584E-03       5    7    1        -0.1335136181E-01      0.1580780529E-01
          0                14           2             5    7     1      -0.1132819274E-03       5    7    1        -0.6794811001E-02      0.7952907243E-02
          0                15           1             5    7     1      -0.5764807293E-04       5    7    1        -0.3457869379E-02      0.4003711528E-02

    ------------------------------------------------
       NWT REQUIRED           15 OUTER ITERATIONS 
       AND A TOTAL OF         29 INNER ITERATIONS.
    ------------------------------------------------

 NO OUTPUT CONTROL FOR STRESS PERIOD    9   TIME STEP   13
 
 SOLVING FOR HEAD 
                                                   Max.-Head-Change                         Max.-Flux-Residual
  Residual-Control   Outer-Iter.   Inner-Iter.     Column Row Layer    Maximum-Head-Change  Column Row Layer    Maximum-Flux-Residual          L2-NORM 
          0                 1           2             4    7     1       0.3792828540E+00       4    7    1         0.1989878771E+02      0.4372675714E+02
          0                 2           2             4    8     1      -0.1124285641E+00       5    6    1        -0.6385048901E+01      0.1029405552E+02
          0                 3           2             4    7     1       0.1383457030E+00       4    7    1         0.7257243285E+01      0.1543707693E+02
          0                 4           2             4    6     1      -0.1364476570E+00       4    6    1        -0.7474384133E+01      0.1553558095E+02
          0                 5           2             5    8     1      -0.4842171393E-01       5    8    1        -0.2846149617E+01      0.4959804244E+01
          0                 6           2             5    7     1      -0.2229744207E-01       5    7    1        -0.1237700739E+01      0.1894999559E+01
          0                 7           2             4    7     1      -0.1111884756E-01       4    7    1        -0.6104107897E+00      0.8991459909E+00
          0                 8           2             4    7     1      -0.5553060078E-02       4    7    1        -0.3051171111E+00      0.4428979791E+00
          0                 9           2             4    7     1      -0.2771977092E-02       4    7    1        -0.1523741484E+00      0.2192326604E+00
          0                10           2             4    7     1      -0.1383273462E-02       4    7    1        -0.7605812912E-01      0.1085989741E+00
                                                   Max.-Head-Change                         Max.-Flux-Residual
  Residual-Control   Outer-Iter.   Inner-Iter.     Column Row Layer    Maximum-Head-Change  Column Row Layer    Maximum-Flux-Residual          L2-NORM 
          0                11           2             4    7     1      -0.6901122067E-03       4    7    1        -0.3795277157E-01      0.5381099990E-01
          0                12           2             4    7     1      -0.3442231886E-03       4    7    1        -0.1893372094E-01      0.2667025521E-01
          0                13           2             4    7     1      -0.1716636797E-03       4    7    1        -0.9443612312E-02      0.1322186276E-01
          0                14           1             4    7     1      -0.8559357303E-04       4    7    1        -0.4709328414E-02      0.6556379743E-02

    ------------------------------------------------
       NWT REQUIRED           14 OUTER ITERATIONS 
       AND A TOTAL OF         27 INNER ITERATIONS.
    ------------------------------------------------

 NO OUTPUT CONTROL FOR STRESS PERIOD    9   TIME STEP   14
 
 SOLVING FOR HEAD 
                                                   Max.-Head-Change                         Max.-Flux-Residual
  Residual-Control   Outer-Iter.   Inner-Iter.     Column Row Layer    Maximum-Head-Change  Column Row Layer    Maximum-Flux-Residual          L2-NORM 
          0                 1           2             4    7     1       0.3723788800E+00       4    7    1         0.1953460933E+02      0.4326304281E+02
          0                 2           2             4    6     1      -0.1014085683E+00       4    6    1        -0.5644353088E+01      0.8449970382E+01
          0                 3           2             4    7     1       0.1403436862E+00       4    7    1         0.7393040965E+01      0.1484757123E+02
          0                 4           2             4    6     1      -0.1251112619E+00       4    6    1        -0.7260442129E+01      0.1386143030E+02
          0                 5           2             4    8     1      -0.5218501477E-01       5    6    1        -0.3021569480E+01      0.6210931503E+01
          0                 6           2             5    8     1      -0.2468916444E-01       5    8    1        -0.1441922566E+01      0.2906714884E+01
          0                 7           2             5    8     1      -0.1281002672E-01       5    8    1        -0.7553529068E+00      0.1193379127E+01
          0                 8           2             5    8     1      -0.6621017314E-02       5    8    1        -0.3917974166E+00      0.5852329987E+00
          0                 9           2             5    8     1      -0.3416591576E-02       5    8    1        -0.2024739045E+00      0.2951867466E+00
          0                10           2             5    8     1      -0.1761543288E-02       5    8    1        -0.1044704681E+00      0.1494334640E+00
                                                   Max.-Head-Change                         Max.-Flux-Residual
  Residual-Control   Outer-Iter.   Inner-Iter.     Column Row Layer    Maximum-Head-Change  Column Row Layer    Maximum-Flux-Residual          L2-NORM 
          0                11           2             5    8     1      -0.9077149889E-03       5    8    1        -0.5385908458E-01      0.7570755116E-01
          0                12           2             5    8     1      -0.4675320099E-03       5    8    1        -0.2775136417E-01      0.3837550690E-01
          0                13           2             5    8     1      -0.2407145972E-03       5    8    1        -0.1429280799E-01      0.1946188603E-01
          0                14           1             5    8     1      -0.1238901591E-03       5    8    1        -0.7358368294E-02      0.9874765758E-02
          0                15           1             5    8     1      -0.6374187985E-04       5    8    1        -0.3786953737E-02      0.5012700473E-02

    ------------------------------------------------
       NWT REQUIRED           15 OUTER ITERATIONS 
       AND A TOTAL OF         28 INNER ITERATIONS.
    ------------------------------------------------

 NO OUTPUT CONTROL FOR STRESS PERIOD    9   TIME STEP   15
 
 SOLVING FOR HEAD 
                                                   Max.-Head-Change                         Max.-Flux-Residual
  Residual-Control   Outer-Iter.   Inner-Iter.     Column Row Layer    Maximum-Head-Change  Column Row Layer    Maximum-Flux-Residual          L2-NORM 
          0                 1           2             4    7     1       0.3633788449E+00       4    7    1         0.1904887853E+02      0.4282841275E+02
          0                 2           2             4    6     1      -0.1125036865E+00       4    6    1        -0.6265399218E+01      0.7482187534E+01
          0                 3           2             4    7     1       0.1175538949E+00       4    8    1         0.6551610838E+01      0.1557216758E+02
          0                 4           2             4    7     1      -0.1258601397E+00       4    6    1        -0.7277809199E+01      0.1514193385E+02
          0                 5           2             5    6     1      -0.4546856784E-01       5    6    1        -0.2692239827E+01      0.5090564427E+01
          0                 6           2             4    8     1      -0.2358536239E-01       5    6    1        -0.1388603496E+01      0.2409924658E+01
          0                 7           2             4    8     1      -0.1238109399E-01       4    8    1        -0.7206090201E+00      0.1231815623E+01
          0                 8           2             4    8     1      -0.6494032735E-02       4    8    1        -0.3782578181E+00      0.6358397976E+00
          0                 9           2             4    8     1      -0.3404762803E-02       4    8    1        -0.1983931902E+00      0.3285934637E+00
          0                10           2             4    8     1      -0.1784598504E-02       4    8    1        -0.1040127773E+00      0.1698664255E+00
                                                   Max.-Head-Change                         Max.-Flux-Residual
  Residual-Control   Outer-Iter.   Inner-Iter.     Column Row Layer    Maximum-Head-Change  Column Row Layer    Maximum-Flux-Residual          L2-NORM 
          0                11           2             4    8     1      -0.9351905305E-03       4    8    1        -0.5451668246E-01      0.8783724535E-01
          0                12           2             4    8     1      -0.4899776575E-03       4    8    1        -0.2856792193E-01      0.4543383640E-01
          0                13           2             4    8     1      -0.2566698014E-03       4    8    1        -0.1496734402E-01      0.2350778604E-01
          0                14           2             4    8     1      -0.1344310175E-03       4    8    1        -0.7840311028E-02      0.1216674618E-01
          0                15           1             4    8     1      -0.7039695264E-04       4    8    1        -0.4106276122E-02      0.6298903721E-02

    ------------------------------------------------
       NWT REQUIRED           15 OUTER ITERATIONS 
       AND A TOTAL OF         29 INNER ITERATIONS.
    ------------------------------------------------

 NO OUTPUT CONTROL FOR STRESS PERIOD    9   TIME STEP   16
 
 SOLVING FOR HEAD 
                                                   Max.-Head-Change                         Max.-Flux-Residual
  Residual-Control   Outer-Iter.   Inner-Iter.     Column Row Layer    Maximum-Head-Change  Column Row Layer    Maximum-Flux-Residual          L2-NORM 
          0                 1           2             4    7     1       0.3587473420E+00       4    7    1         0.1880125485E+02      0.4234118202E+02
          0                 2           2             5    7     1      -0.1126810531E+00       5    7    1        -0.6298292168E+01      0.9599703914E+01
          0                 3           2             4    8     1       0.1295275889E+00       4    8    1         0.6864253442E+01      0.1507395373E+02
          0                 4           2             4    7     1      -0.1268749492E+00       5    7    1        -0.7273778911E+01      0.1446758735E+02
          0                 5           2             4    6     1      -0.5128621742E-01       4    6    1        -0.2980251085E+01      0.5675848011E+01
          0                 6           2             4    6     1      -0.2685292265E-01       4    6    1        -0.1566989019E+01      0.2798877771E+01
          0                 7           2             4    6     1      -0.1242745898E-01       4    6    1        -0.7249344682E+00      0.1382656421E+01
          0                 8           2             5    8     1      -0.6168006576E-02       5    8    1        -0.3652233255E+00      0.6158166590E+00
          0                 9           2             5    8     1      -0.3183614688E-02       5    8    1        -0.1886311574E+00      0.3075749511E+00
          0                10           2             5    8     1      -0.1642291793E-02       5    8    1        -0.9735366027E-01      0.1561516647E+00
                                                   Max.-Head-Change                         Max.-Flux-Residual
  Residual-Control   Outer-Iter.   Inner-Iter.     Column Row Layer    Maximum-Head-Change  Column Row Layer    Maximum-Flux-Residual          L2-NORM 
          0                11           2             5    8     1      -0.8467770216E-03       5    8    1        -0.5021673160E-01      0.7944156119E-01
          0                12           2             5    8     1      -0.4364118630E-03       5    8    1        -0.2589021153E-01      0.4043267764E-01
          0                13           2             5    8     1      -0.2248261558E-03       5    8    1        -0.1334237451E-01      0.2058385302E-01
          0                14           2             5    8     1      -0.1157794436E-03       5    8    1        -0.6873134841E-02      0.1048145108E-01
          0                15           1             5    8     1      -0.5960196576E-04       5    8    1        -0.3539257846E-02      0.5338401096E-02

    ------------------------------------------------
       NWT REQUIRED           15 OUTER ITERATIONS 
       AND A TOTAL OF         29 INNER ITERATIONS.
    ------------------------------------------------

 NO OUTPUT CONTROL FOR STRESS PERIOD    9   TIME STEP   17
 
 SOLVING FOR HEAD 
                                                   Max.-Head-Change                         Max.-Flux-Residual
  Residual-Control   Outer-Iter.   Inner-Iter.     Column Row Layer    Maximum-Head-Change  Column Row Layer    Maximum-Flux-Residual          L2-NORM 
          0                 1           2             4    7     1       0.3579066747E+00       4    7    1         0.1876051191E+02      0.4189920921E+02
          0                 2           2             5    7     1      -0.9609221250E-01       5    7    1        -0.5392292518E+01      0.6688380161E+01
          0                 3           2             4    8     1       0.1280905252E+00       4    8    1         0.6799391104E+01      0.1501065572E+02
          0                 4           2             5    7     1      -0.1133013719E+00       5    7    1        -0.6551674040E+01      0.1385232479E+02
          0                 5           2             4    7     1      -0.5204642206E-01       4    7    1        -0.2987616742E+01      0.5909524352E+01
          0                 6           2             4    7     1      -0.2754183285E-01       4    7    1        -0.1592347468E+01      0.2943332148E+01
          0                 7           2             4    6     1      -0.1255069370E-01       4    6    1        -0.7237350858E+00      0.1437224551E+01
          0                 8           2             4    6     1      -0.6594085723E-02       4    6    1        -0.3835253064E+00      0.6742184233E+00
          0                 9           2             4    6     1      -0.3453335604E-02       4    6    1        -0.2014571603E+00      0.3438387810E+00
          0                10           2             4    6     1      -0.1806307352E-02       4    6    1        -0.1054937710E+00      0.1772788308E+00
                                                   Max.-Head-Change                         Max.-Flux-Residual
  Residual-Control   Outer-Iter.   Inner-Iter.     Column Row Layer    Maximum-Head-Change  Column Row Layer    Maximum-Flux-Residual          L2-NORM 
          0                11           2             4    6     1      -0.9443007051E-03       4    6    1        -0.5517715785E-01      0.9153378807E-01
          0                12           2             4    6     1      -0.4935122752E-03       4    6    1        -0.2884459305E-01      0.4728100266E-01
          0                13           2             4    6     1      -0.2578646629E-03       4    6    1        -0.1507442852E-01      0.2443055184E-01
          0                14           2             4    6     1      -0.1347121123E-03       4    6    1        -0.7876338740E-02      0.1262742984E-01
          0                15           1             4    6     1      -0.7036390501E-04       4    6    1        -0.4114614934E-02      0.6528670291E-02

    ------------------------------------------------
       NWT REQUIRED           15 OUTER ITERATIONS 
       AND A TOTAL OF         29 INNER ITERATIONS.
    ------------------------------------------------

 NO OUTPUT CONTROL FOR STRESS PERIOD    9   TIME STEP   18
 
 SOLVING FOR HEAD 
                                                   Max.-Head-Change                         Max.-Flux-Residual
  Residual-Control   Outer-Iter.   Inner-Iter.     Column Row Layer    Maximum-Head-Change  Column Row Layer    Maximum-Flux-Residual          L2-NORM 
          0                 1           2             4    7     1       0.3583245995E+00       4    7    1         0.1879263621E+02      0.4144479984E+02
          0                 2           2             5    8     1      -0.7167869775E-01       5    8    1        -0.3976022649E+01      0.6238607239E+01
          0                 3           2             4    7     1       0.1337503465E+00       4    7    1         0.7020812239E+01      0.1577297047E+02
          0                 4           2             4    8     1      -0.1250805958E+00       5    8    1        -0.7247446652E+01      0.1512855875E+02
          0                 5           2             5    7     1      -0.4842642297E-01       5    7    1        -0.2828166952E+01      0.5095339835E+01
          0                 6           2             5    7     1      -0.2524890091E-01       5    7    1        -0.1481746108E+01      0.2467057169E+01
          0                 7           2             5    7     1      -0.1313934025E-01       5    7    1        -0.7724203015E+00      0.1257131319E+01
          0                 8           2             5    7     1      -0.6832391243E-02       5    7    1        -0.4019191386E+00      0.6451922399E+00
          0                 9           2             5    7     1      -0.3551502429E-02       5    7    1        -0.2089797691E+00      0.3316263946E+00
          0                10           2             5    7     1      -0.1845665126E-02       5    7    1        -0.1086212931E+00      0.1705978340E+00
                                                   Max.-Head-Change                         Max.-Flux-Residual
  Residual-Control   Outer-Iter.   Inner-Iter.     Column Row Layer    Maximum-Head-Change  Column Row Layer    Maximum-Flux-Residual          L2-NORM 
          0                11           2             5    7     1      -0.9589991780E-03       5    7    1        -0.5644550958E-01      0.8782519674E-01
          0                12           2             5    7     1      -0.4982165261E-03       5    7    1        -0.2932714046E-01      0.4524434172E-01
          0                13           2             5    7     1      -0.2587962905E-03       5    7    1        -0.1523511011E-01      0.2332317334E-01
          0                14           2             5    7     1      -0.1344131634E-03       5    7    1        -0.7913385737E-02      0.1203006157E-01
          0                15           1             5    7     1      -0.6980275980E-04       5    7    1        -0.4109828250E-02      0.6208464005E-02

    ------------------------------------------------
       NWT REQUIRED           15 OUTER ITERATIONS 
       AND A TOTAL OF         29 INNER ITERATIONS.
    ------------------------------------------------

 NO OUTPUT CONTROL FOR STRESS PERIOD    9   TIME STEP   19
 
 SOLVING FOR HEAD 
                                                   Max.-Head-Change                         Max.-Flux-Residual
  Residual-Control   Outer-Iter.   Inner-Iter.     Column Row Layer    Maximum-Head-Change  Column Row Layer    Maximum-Flux-Residual          L2-NORM 
          0                 1           2             4    7     1       0.3519774953E+00       4    7    1         0.1845156605E+02      0.4100473795E+02
          0                 2           2             5    8     1      -0.1172678295E+00       5    8    1        -0.6560812700E+01      0.1070033594E+02
          0                 3           2             4    7     1       0.1365145128E+00       4    7    1         0.7162106677E+01      0.1578503882E+02
          0                 4           2             4    8     1      -0.1260276272E+00       5    8    1        -0.7296190303E+01      0.1531556927E+02
          0                 5           2             4    7     1      -0.4476591698E-01       5    7    1        -0.2566563885E+01      0.4717383743E+01
          0                 6           2             5    7     1      -0.2285013252E-01       5    7    1        -0.1346874375E+01      0.2187718551E+01
          0                 7           2             5    7     1      -0.1181427348E-01       5    7    1        -0.6990484101E+00      0.1111118022E+01
          0                 8           2             5    7     1      -0.6098237997E-02       5    7    1        -0.3613745113E+00      0.5710449601E+00
          0                 9           2             5    7     1      -0.3145264538E-02       5    7    1        -0.1865149308E+00      0.2939080723E+00
          0                10           2             5    7     1      -0.1621442228E-02       5    7    1        -0.9619119047E-01      0.1513273062E+00
                                                   Max.-Head-Change                         Max.-Flux-Residual
  Residual-Control   Outer-Iter.   Inner-Iter.     Column Row Layer    Maximum-Head-Change  Column Row Layer    Maximum-Flux-Residual          L2-NORM 
          0                11           2             5    7     1      -0.8355853448E-03       5    7    1        -0.4958529279E-01      0.7793848032E-01
          0                12           2             5    7     1      -0.4304770636E-03       5    7    1        -0.2555158501E-01      0.4015229975E-01
          0                13           2             5    7     1      -0.2217142581E-03       5    7    1        -0.1316298104E-01      0.2069117088E-01
          0                14           2             5    7     1      -0.1141647969E-03       5    7    1        -0.6779166902E-02      0.1066513567E-01
          0                15           1             5    7     1      -0.5877255826E-04       5    7    1        -0.3490554873E-02      0.5498507972E-02

    ------------------------------------------------
       NWT REQUIRED           15 OUTER ITERATIONS 
       AND A TOTAL OF         29 INNER ITERATIONS.
    ------------------------------------------------

 NO OUTPUT CONTROL FOR STRESS PERIOD    9   TIME STEP   20
 
 SOLVING FOR HEAD 
                                                   Max.-Head-Change                         Max.-Flux-Residual
  Residual-Control   Outer-Iter.   Inner-Iter.     Column Row Layer    Maximum-Head-Change  Column Row Layer    Maximum-Flux-Residual          L2-NORM 
          0                 1           2             4    7     1       0.3455160740E+00       4    7    1         0.1810875715E+02      0.4062126628E+02
          0                 2           2             5    8     1      -0.1170966014E+00       5    8    1        -0.6557800912E+01      0.1163143990E+02
          0                 3           2             4    7     1       0.1204656225E+00       4    7    1         0.6676577806E+01      0.1502801661E+02
          0                 4           2             4    6     1      -0.1255762484E+00       5    8    1        -0.7298151503E+01      0.1671609605E+02
          0                 5           2             5    7     1      -0.4459102800E-01       5    7    1        -0.2618895494E+01      0.4135777150E+01
          0                 6           2             5    7     1      -0.2283952688E-01       5    7    1        -0.1362071549E+01      0.1484907494E+01
          0                 7           2             5    7     1      -0.1163182131E-01       5    7    1        -0.6973755645E+00      0.7064144173E+00
          0                 8           2             5    7     1      -0.5911950683E-02       5    7    1        -0.3551081320E+00      0.3558694988E+00
          0                 9           2             5    7     1      -0.3002616189E-02       5    7    1        -0.1804739078E+00      0.1805666238E+00
          0                10           2             5    7     1      -0.1524594973E-02       5    7    1        -0.9165739520E-01      0.9167736178E-01
                                                   Max.-Head-Change                         Max.-Flux-Residual
  Residual-Control   Outer-Iter.   Inner-Iter.     Column Row Layer    Maximum-Head-Change  Column Row Layer    Maximum-Flux-Residual          L2-NORM 
          0                11           2             5    7     1      -0.7740442041E-03       5    7    1        -0.4653835449E-01      0.4654528226E-01
          0                12           2             5    7     1      -0.3929695652E-03       5    7    1        -0.2362723357E-01      0.2363028033E-01
          0                13           2             5    7     1      -0.1995000163E-03       5    7    1        -0.1199491629E-01      0.1199638513E-01
          0                14           2             5    7     1      -0.1012793770E-03       5    7    1        -0.6089374155E-02      0.6090106186E-02
          0                15           1             5    7     1      -0.5141553013E-04       5    7    1        -0.3091307798E-02      0.3091677007E-02

    ------------------------------------------------
       NWT REQUIRED           15 OUTER ITERATIONS 
       AND A TOTAL OF         29 INNER ITERATIONS.
    ------------------------------------------------

 NO OUTPUT CONTROL FOR STRESS PERIOD    9   TIME STEP   21
 
 SOLVING FOR HEAD 
                                                   Max.-Head-Change                         Max.-Flux-Residual
  Residual-Control   Outer-Iter.   Inner-Iter.     Column Row Layer    Maximum-Head-Change  Column Row Layer    Maximum-Flux-Residual          L2-NORM 
          0                 1           2             4    7     1       0.3393186577E+00       4    7    1         0.1777882892E+02      0.4029414386E+02
          0                 2           2             4    6     1      -0.1173336180E+00       5    6    1        -0.6538680318E+01      0.1278763139E+02
          0                 3           2             5    7     1       0.1156528408E+00       5    7    1         0.6497913801E+01      0.1418649878E+02
          0                 4           2             4    7     1      -0.1275042559E+00       5    6    1        -0.7298530004E+01      0.1677174700E+02
          0                 5           2             4    8     1      -0.5032305179E-01       4    8    1        -0.2924669300E+01      0.4538448489E+01
          0                 6           2             4    8     1      -0.2617039471E-01       4    8    1        -0.1537552085E+01      0.1850178503E+01
          0                 7           2             4    8     1      -0.1355629949E-01       4    8    1        -0.7993723453E+00      0.9210342010E+00
          0                 8           2             4    8     1      -0.7012671725E-02       4    8    1        -0.4140302308E+00      0.4727972789E+00
          0                 9           2             4    8     1      -0.3625934226E-02       4    8    1        -0.2141669369E+00      0.2434732609E+00
          0                10           2             4    8     1      -0.1874481945E-02       4    8    1        -0.1107326675E+00      0.1254052639E+00
                                                   Max.-Head-Change                         Max.-Flux-Residual
  Residual-Control   Outer-Iter.   Inner-Iter.     Column Row Layer    Maximum-Head-Change  Column Row Layer    Maximum-Flux-Residual          L2-NORM 
          0                11           2             4    8     1      -0.9689746161E-03       4    8    1        -0.5724362103E-01      0.6459301497E-01
          0                12           2             4    8     1      -0.5008743087E-03       4    8    1        -0.2959029520E-01      0.3327169864E-01
          0                13           2             4    8     1      -0.2589021462E-03       4    8    1        -0.1529526787E-01      0.1713931835E-01
          0                14           2             4    8     1      -0.1338242884E-03       4    8    1        -0.7905977021E-02      0.8829672023E-02
          0                15           1             4    8     1      -0.6917151661E-04       4    8    1        -0.4086452481E-02      0.4549133412E-02

    ------------------------------------------------
       NWT REQUIRED           15 OUTER ITERATIONS 
       AND A TOTAL OF         29 INNER ITERATIONS.
    ------------------------------------------------

 NO OUTPUT CONTROL FOR STRESS PERIOD    9   TIME STEP   22
 
 SOLVING FOR HEAD 
                                                   Max.-Head-Change                         Max.-Flux-Residual
  Residual-Control   Outer-Iter.   Inner-Iter.     Column Row Layer    Maximum-Head-Change  Column Row Layer    Maximum-Flux-Residual          L2-NORM 
          0                 1           2             4    7     1       0.3386292064E+00       4    7    1         0.1775132205E+02      0.4002482105E+02
          0                 2           2             4    6     1      -0.1126202945E+00       4    6    1        -0.6163646629E+01      0.1131916290E+02
          0                 3           2             4    8     1       0.1178033670E+00       4    8    1         0.6617969552E+01      0.1375296652E+02
          0                 4           2             4    6     1      -0.1265788118E+00       4    6    1        -0.7313752191E+01      0.1554883285E+02
          0                 5           2             5    6     1      -0.5100209905E-01       5    6    1        -0.3024748684E+01      0.5596506914E+01
          0                 6           2             5    8     1      -0.2581560740E-01       5    8    1        -0.1524653667E+01      0.2178293213E+01
          0                 7           2             5    8     1      -0.1333110587E-01       5    8    1        -0.7884352296E+00      0.1079349703E+01
          0                 8           2             5    8     1      -0.6881432277E-02       5    8    1        -0.4071229306E+00      0.5582635208E+00
          0                 9           2             5    8     1      -0.3552202039E-02       5    8    1        -0.2101482493E+00      0.2902934780E+00
          0                10           2             5    8     1      -0.1833940629E-02       5    8    1        -0.1084766909E+00      0.1510516726E+00
                                                   Max.-Head-Change                         Max.-Flux-Residual
  Residual-Control   Outer-Iter.   Inner-Iter.     Column Row Layer    Maximum-Head-Change  Column Row Layer    Maximum-Flux-Residual          L2-NORM 
          0                11           2             4    8     1      -0.9473938465E-03       5    8    1        -0.5600379002E-01      0.7861082658E-01
          0                12           2             4    8     1      -0.4962498185E-03       4    8    1        -0.2894156940E-01      0.3897895089E-01
          0                13           2             4    8     1      -0.2576416695E-03       4    8    1        -0.1515883826E-01      0.1586021802E-01
          0                14           2             4    8     1      -0.1333365327E-03       4    8    1        -0.7868277272E-02      0.7915577913E-02
          0                15           1             4    8     1      -0.6893058547E-04       4    8    1        -0.4071671868E-02      0.4075512040E-02

    ------------------------------------------------
       NWT REQUIRED           15 OUTER ITERATIONS 
       AND A TOTAL OF         29 INNER ITERATIONS.
    ------------------------------------------------

 NO OUTPUT CONTROL FOR STRESS PERIOD    9   TIME STEP   23
 
 SOLVING FOR HEAD 
                                                   Max.-Head-Change                         Max.-Flux-Residual
  Residual-Control   Outer-Iter.   Inner-Iter.     Column Row Layer    Maximum-Head-Change  Column Row Layer    Maximum-Flux-Residual          L2-NORM 
          0                 1           2             4    7     1       0.3380149064E+00       4    7    1         0.1772687211E+02      0.3975244842E+02
          0                 2           2             5    7     1      -0.1148338744E+00       5    7    1        -0.6448710234E+01      0.8211914220E+01
          0                 3           2             4    8     1       0.1174552858E+00       4    8    1         0.6577634389E+01      0.1437873143E+02
          0                 4           2             5    7     1      -0.1251807232E+00       5    7    1        -0.7280121472E+01      0.1376596196E+02
          0                 5           2             4    6     1      -0.5159425723E-01       4    6    1        -0.2974136428E+01      0.6356644670E+01
          0                 6           2             4    6     1      -0.2734413215E-01       4    6    1        -0.1576699958E+01      0.3291167438E+01
          0                 7           2             4    6     1      -0.1437703774E-01       4    6    1        -0.8290810682E+00      0.1724892491E+01
          0                 8           2             4    7     1      -0.7355541430E-02       4    7    1        -0.4278692626E+00      0.8078309547E+00
          0                 9           2             4    7     1      -0.3851112993E-02       4    7    1        -0.2247195216E+00      0.4150846139E+00
          0                10           2             4    7     1      -0.2014281222E-02       4    7    1        -0.1176443556E+00      0.2158451583E+00
                                                   Max.-Head-Change                         Max.-Flux-Residual
  Residual-Control   Outer-Iter.   Inner-Iter.     Column Row Layer    Maximum-Head-Change  Column Row Layer    Maximum-Flux-Residual          L2-NORM 
          0                11           2             4    7     1      -0.1053324177E-02       4    7    1        -0.6153000528E-01      0.1124169044E+00
          0                12           2             4    7     1      -0.5508423693E-03       4    7    1        -0.3217501643E-01      0.5857983878E-01
          0                13           2             4    7     1      -0.2881065628E-03       4    7    1        -0.1682583260E-01      0.3053935066E-01
          0                14           2             4    8     1      -0.1528239819E-03       4    8    1        -0.8801771045E-02      0.1592812999E-01
          0                15           1             4    8     1      -0.8104013915E-04       4    8    1        -0.4669521380E-02      0.8311101723E-02

    ------------------------------------------------
       NWT REQUIRED           15 OUTER ITERATIONS 
       AND A TOTAL OF         29 INNER ITERATIONS.
    ------------------------------------------------

 NO OUTPUT CONTROL FOR STRESS PERIOD    9   TIME STEP   24
 
 SOLVING FOR HEAD 
                                                   Max.-Head-Change                         Max.-Flux-Residual
  Residual-Control   Outer-Iter.   Inner-Iter.     Column Row Layer    Maximum-Head-Change  Column Row Layer    Maximum-Flux-Residual          L2-NORM 
          0                 1           2             4    7     1       0.3353196026E+00       4    7    1         0.1758267727E+02      0.3943162633E+02
          0                 2           2             5    7     1      -0.1087450071E+00       5    7    1        -0.6161475124E+01      0.6691493169E+01
          0                 3           2             4    7     1       0.1323189313E+00       4    7    1         0.6945280901E+01      0.1554836295E+02
          0                 4           2             5    7     1      -0.1227270761E+00       5    7    1        -0.7144247098E+01      0.1320880680E+02
          0                 5           2             4    7     1      -0.4577750247E-01       5    8    1        -0.2674914404E+01      0.5961897194E+01
          0                 6           2             4    6     1      -0.2406451002E-01       5    8    1        -0.1392809978E+01      0.3035372250E+01
          0                 7           2             4    6     1      -0.1276119161E-01       4    6    1        -0.7364403415E+00      0.1577110681E+01
          0                 8           2             4    6     1      -0.6759985439E-02       4    6    1        -0.3904835425E+00      0.8214887818E+00
          0                 9           2             4    6     1      -0.3577497003E-02       4    6    1        -0.2068291711E+00      0.4281850704E+00
          0                10           2             4    6     1      -0.1891595654E-02       4    6    1        -0.1094468659E+00      0.2232936737E+00
                                                   Max.-Head-Change                         Max.-Flux-Residual
  Residual-Control   Outer-Iter.   Inner-Iter.     Column Row Layer    Maximum-Head-Change  Column Row Layer    Maximum-Flux-Residual          L2-NORM 
          0                11           2             4    6     1      -0.9993696203E-03       4    6    1        -0.5786468294E-01      0.1164975303E+00
          0                12           2             4    6     1      -0.5275976080E-03       4    6    1        -0.3056859701E-01      0.6080403752E-01
          0                13           2             4    6     1      -0.2783462415E-03       4    6    1        -0.1613685313E-01      0.3174702209E-01
          0                14           2             4    6     1      -0.1467567618E-03       4    6    1        -0.8512759384E-02      0.1658094370E-01
          0                15           1             4    6     1      -0.7733282831E-04       4    6    1        -0.4488013479E-02      0.8662314298E-02

    ------------------------------------------------
       NWT REQUIRED           15 OUTER ITERATIONS 
       AND A TOTAL OF         29 INNER ITERATIONS.
    ------------------------------------------------

 NO OUTPUT CONTROL FOR STRESS PERIOD    9   TIME STEP   25
 
 SOLVING FOR HEAD 
                                                   Max.-Head-Change                         Max.-Flux-Residual
  Residual-Control   Outer-Iter.   Inner-Iter.     Column Row Layer    Maximum-Head-Change  Column Row Layer    Maximum-Flux-Residual          L2-NORM 
          0                 1           2             4    7     1       0.3291512341E+00       4    7    1         0.1724791345E+02      0.3904853570E+02
          0                 2           2             5    7     1      -0.6056074493E-01       5    7    1        -0.3410306328E+01      0.5244553344E+01
          0                 3           2             4    7     1       0.1308629169E+00       4    7    1         0.6875442871E+01      0.1526335105E+02
          0                 4           2             4    8     1      -0.1243152854E+00       4    8    1        -0.7201575691E+01      0.1346093545E+02
          0                 5           2             5    7     1      -0.5095853425E-01       5    7    1        -0.2940481192E+01      0.6131410584E+01
          0                 6           2             5    7     1      -0.2700009341E-01       5    7    1        -0.1559593427E+01      0.3147852256E+01
          0                 7           2             5    7     1      -0.1429049227E-01       5    7    1        -0.8262495398E+00      0.1642865914E+01
          0                 8           2             4    6     1      -0.6697981287E-02       4    6    1        -0.3864442871E+00      0.8102932205E+00
          0                 9           2             4    6     1      -0.3548551998E-02       4    6    1        -0.2049446702E+00      0.3892859407E+00
          0                10           2             4    6     1      -0.1877876358E-02       4    6    1        -0.1085656388E+00      0.1989930238E+00
                                                   Max.-Head-Change                         Max.-Flux-Residual
  Residual-Control   Outer-Iter.   Inner-Iter.     Column Row Layer    Maximum-Head-Change  Column Row Layer    Maximum-Flux-Residual          L2-NORM 
          0                11           2             4    6     1      -0.9927042790E-03       4    6    1        -0.5744574704E-01      0.1025025802E+00
          0                12           2             4    6     1      -0.5242584253E-03       4    6    1        -0.3036430779E-01      0.5286869935E-01
          0                13           2             4    6     1      -0.2766168588E-03       4    6    1        -0.1603410617E-01      0.2728803416E-01
          0                14           2             4    6     1      -0.1458317436E-03       4    6    1        -0.8459348623E-02      0.1409395995E-01
          0                15           1             4    6     1      -0.7682370778E-04       4    6    1        -0.4459355836E-02      0.7283954830E-02

    ------------------------------------------------
       NWT REQUIRED           15 OUTER ITERATIONS 
       AND A TOTAL OF         29 INNER ITERATIONS.
    ------------------------------------------------

 NO OUTPUT CONTROL FOR STRESS PERIOD    9   TIME STEP   26
 
 SOLVING FOR HEAD 
                                                   Max.-Head-Change                         Max.-Flux-Residual
  Residual-Control   Outer-Iter.   Inner-Iter.     Column Row Layer    Maximum-Head-Change  Column Row Layer    Maximum-Flux-Residual          L2-NORM 
          0                 1           2             4    7     1       0.3232752498E+00       4    7    1         0.1693446455E+02      0.3614286534E+02
          0                 2           2             5    8     1      -0.1390355132E+00       5    8    1        -0.7781730571E+01      0.1049236417E+02
          0                 3           2             4    7     1       0.1194176821E+00       4    7    1         0.6609637997E+01      0.1521643712E+02
          0                 4           2             4    8     1      -0.1268257046E+00       5    8    1        -0.7322443570E+01      0.1523277283E+02
          0                 5           2             5    7     1      -0.4585513802E-01       5    7    1        -0.2673650884E+01      0.5131509405E+01
          0                 6           2             5    6     1      -0.2391504947E-01       5    7    1        -0.1400931391E+01      0.2446823569E+01
          0                 7           2             5    6     1      -0.1252306362E-01       5    6    1        -0.7306108982E+00      0.1261294428E+01
          0                 8           2             5    6     1      -0.6556233231E-02       5    6    1        -0.3825732581E+00      0.6566299039E+00
          0                 9           2             5    6     1      -0.3431655745E-02       5    6    1        -0.2002846692E+00      0.3421945314E+00
          0                10           2             5    6     1      -0.1795818486E-02       5    6    1        -0.1048302219E+00      0.1783496438E+00
                                                   Max.-Head-Change                         Max.-Flux-Residual
  Residual-Control   Outer-Iter.   Inner-Iter.     Column Row Layer    Maximum-Head-Change  Column Row Layer    Maximum-Flux-Residual          L2-NORM 
          0                11           2             5    6     1      -0.9395831812E-03       5    6    1        -0.5485735739E-01      0.9295910707E-01
          0                12           2             5    6     1      -0.4915037492E-03       5    6    1        -0.2870103024E-01      0.4845465045E-01
          0                13           2             5    6     1      -0.2570643223E-03       5    6    1        -0.1501339905E-01      0.2525831497E-01
          0                14           2             5    6     1      -0.1344263714E-03       5    6    1        -0.7852068091E-02      0.1316734674E-01
          0                15           1             5    6     1      -0.7028439754E-04       5    6    1        -0.4105980585E-02      0.6864611806E-02

    ------------------------------------------------
       NWT REQUIRED           15 OUTER ITERATIONS 
       AND A TOTAL OF         29 INNER ITERATIONS.
    ------------------------------------------------

 NO OUTPUT CONTROL FOR STRESS PERIOD    9   TIME STEP   27
 
 SOLVING FOR HEAD 
                                                   Max.-Head-Change                         Max.-Flux-Residual
  Residual-Control   Outer-Iter.   Inner-Iter.     Column Row Layer    Maximum-Head-Change  Column Row Layer    Maximum-Flux-Residual          L2-NORM 
          0                 1           2             4    7     1       0.3180494157E+00       4    7    1         0.1666369501E+02      0.3557874645E+02
          0                 2           2             5    8     1      -0.1459692482E+00       5    8    1        -0.7943382881E+01      0.1240567964E+02
          0                 3           2             5    8     1       0.1366821503E+00       5    8    1         0.7569757159E+01      0.1569750413E+02
          0                 4           2             5    8     1      -0.1535298092E+00       5    8    1        -0.8770635007E+01      0.1732289153E+02
          0                 5           2             5    7     1      -0.4586796042E-01       5    7    1        -0.2710754508E+01      0.4129671564E+01
          0                 6           2             5    7     1      -0.2363770503E-01       5    7    1        -0.1400865379E+01      0.1891325947E+01
          0                 7           2             5    7     1      -0.1216049663E-01       5    7    1        -0.7218460877E+00      0.9678142289E+00
          0                 8           2             5    7     1      -0.6253045499E-02       5    7    1        -0.3713344296E+00      0.5011825126E+00
          0                 9           2             5    7     1      -0.3215259380E-02       5    7    1        -0.1909379699E+00      0.2599183395E+00
          0                10           2             5    7     1      -0.1653448533E-02       5    7    1        -0.9817660571E-01      0.1348364880E+00
                                                   Max.-Head-Change                         Max.-Flux-Residual
  Residual-Control   Outer-Iter.   Inner-Iter.     Column Row Layer    Maximum-Head-Change  Column Row Layer    Maximum-Flux-Residual          L2-NORM 
          0                11           2             5    7     1      -0.8504294565E-03       5    7    1        -0.5048653640E-01      0.6996218398E-01
          0                12           2             5    7     1      -0.4374881899E-03       5    7    1        -0.2596669425E-01      0.3630813386E-01
          0                13           2             5    7     1      -0.2251007468E-03       5    7    1        -0.1335790594E-01      0.1884642875E-01
          0                14           2             5    7     1      -0.1158431505E-03       5    7    1        -0.6872942770E-02      0.9784468241E-02
          0                15           1             5    7     1      -0.5962744638E-04       5    7    1        -0.3536958095E-02      0.5080730672E-02

    ------------------------------------------------
       NWT REQUIRED           15 OUTER ITERATIONS 
       AND A TOTAL OF         29 INNER ITERATIONS.
    ------------------------------------------------

 NO OUTPUT CONTROL FOR STRESS PERIOD    9   TIME STEP   28
 
 SOLVING FOR HEAD 
                                                   Max.-Head-Change                         Max.-Flux-Residual
  Residual-Control   Outer-Iter.   Inner-Iter.     Column Row Layer    Maximum-Head-Change  Column Row Layer    Maximum-Flux-Residual          L2-NORM 
          0                 1           2             4    7     1       0.3183921067E+00       4    7    1         0.1669910627E+02      0.3495562324E+02
          0                 2           2             5    8     1      -0.1475093162E+00       5    8    1        -0.8035354248E+01      0.1386029139E+02
          0                 3           2             5    8     1       0.1366182624E+00       5    8    1         0.7578733940E+01      0.1514647133E+02
          0                 4           2             5    8     1      -0.1534441818E+00       5    8    1        -0.8770894895E+01      0.1749222289E+02
          0                 5           2             5    7     1      -0.4644317563E-01       5    7    1        -0.2756903879E+01      0.4095360280E+01
          0                 6           2             5    7     1      -0.2370746142E-01       5    7    1        -0.1418279474E+01      0.1522123355E+01
          0                 7           2             5    7     1      -0.1205651515E-01       5    7    1        -0.7238071501E+00      0.7312825159E+00
          0                 8           2             5    7     1      -0.6123194284E-02       5    7    1        -0.3680557550E+00      0.3686615565E+00
          0                 9           2             5    7     1      -0.3108312092E-02       5    7    1        -0.1869165460E+00      0.1869859784E+00
          0                10           2             5    7     1      -0.1577588230E-02       5    7    1        -0.9488136348E-01      0.9489561247E-01
                                                   Max.-Head-Change                         Max.-Flux-Residual
  Residual-Control   Outer-Iter.   Inner-Iter.     Column Row Layer    Maximum-Head-Change  Column Row Layer    Maximum-Flux-Residual          L2-NORM 
          0                11           2             5    7     1      -0.8006308481E-03       5    7    1        -0.4815481241E-01      0.4815967702E-01
          0                12           2             5    7     1      -0.4063099429E-03       5    7    1        -0.2443820142E-01      0.2444033432E-01
          0                13           2             5    7     1      -0.2061935473E-03       5    7    1        -0.1240182710E-01      0.1240285463E-01
          0                14           2             5    7     1      -0.1046374944E-03       5    7    1        -0.6293536402E-02      0.6294048284E-02
          0                15           1             5    7     1      -0.5310005890E-04       5    7    1        -0.3193732393E-02      0.3193990444E-02

    ------------------------------------------------
       NWT REQUIRED           15 OUTER ITERATIONS 
       AND A TOTAL OF         29 INNER ITERATIONS.
    ------------------------------------------------

 NO OUTPUT CONTROL FOR STRESS PERIOD    9   TIME STEP   29
 
 SOLVING FOR HEAD 
                                                   Max.-Head-Change                         Max.-Flux-Residual
  Residual-Control   Outer-Iter.   Inner-Iter.     Column Row Layer    Maximum-Head-Change  Column Row Layer    Maximum-Flux-Residual          L2-NORM 
          0                 1           2             4    7     1       0.3172300592E+00       4    7    1         0.1664811526E+02      0.3445155878E+02
          0                 2           2             5    8     1      -0.1495546721E+00       5    8    1        -0.8132993526E+01      0.1470831209E+02
          0                 3           2             5    8     1       0.1369448916E+00       5    8    1         0.7588948896E+01      0.1484597813E+02
          0                 4           2             5    8     1      -0.1537589317E+00       5    8    1        -0.8771847249E+01      0.1736580158E+02
          0                 5           2             4    7     1      -0.5334598711E-01       4    7    1        -0.3086625063E+01      0.4595874531E+01
          0                 6           2             4    7     1      -0.2396207973E-01       4    7    1        -0.1393793465E+01      0.1947580757E+01
          0                 7           2             5    7     1      -0.1119637361E-01       5    7    1        -0.6688838342E+00      0.7199101153E+00
          0                 8           2             5    7     1      -0.5696628026E-02       5    7    1        -0.3418393864E+00      0.3454956381E+00
          0                 9           2             5    7     1      -0.2893537333E-02       5    7    1        -0.1739024949E+00      0.1742024903E+00
          0                10           2             5    7     1      -0.1468862865E-02       5    7    1        -0.8832660440E-01      0.8836167403E-01
                                                   Max.-Head-Change                         Max.-Flux-Residual
  Residual-Control   Outer-Iter.   Inner-Iter.     Column Row Layer    Maximum-Head-Change  Column Row Layer    Maximum-Flux-Residual          L2-NORM 
          0                11           2             5    7     1      -0.7454859293E-03       5    7    1        -0.4483624168E-01      0.4484337686E-01
          0                12           2             5    7     1      -0.3783221919E-03       5    7    1        -0.2275499793E-01      0.2275736752E-01
          0                13           2             5    7     1      -0.1919856832E-03       5    7    1        -0.1154755258E-01      0.1154857289E-01
          0                14           1             5    7     1      -0.9742440459E-04       5    7    1        -0.5859873601E-02      0.5860361394E-02

    ------------------------------------------------
       NWT REQUIRED           14 OUTER ITERATIONS 
       AND A TOTAL OF         27 INNER ITERATIONS.
    ------------------------------------------------

 NO OUTPUT CONTROL FOR STRESS PERIOD    9   TIME STEP   30



 STREAM LISTING     PERIOD      9   STEP       30

 LAYER ROW COL. STREAM  RCH.  FLOW INTO     FLOW TO   FLOW OUT OF   OVRLND.     DIRECT     STREAM       STREAM     STREAM     STREAM   STREAMBED  STREAMBED
                SEG.NO.  NO.  STRM. RCH.    AQUIFER    STRM. RCH.    RUNOFF     PRECIP       ET          HEAD       DEPTH      WIDTH   CONDCTNC.   GRADIENT

   1    1    1     1     1    4.5750E+01  3.2289E-01   4.5427E+01  0.000E+00  0.000E+00  0.000E+00  1.09442E+03  1.372E+00  1.641E+01  7.386E-02  1.457E+00
   1    2    2     1     2    4.5427E+01  5.0023E-01   4.4927E+01  0.000E+00  0.000E+00  0.000E+00  1.08943E+03  1.369E+00  1.636E+01  1.145E-01  1.456E+00
   1    3    3     1     3    4.4927E+01  4.2678E-01   4.4500E+01  0.000E+00  0.000E+00  0.000E+00  1.08378E+03  1.366E+00  1.629E+01  9.776E-02  1.455E+00
   1    3    4     1     4    4.4500E+01  3.9314E-01   4.4107E+01  0.000E+00  0.000E+00  0.000E+00  1.07877E+03  1.363E+00  1.624E+01  9.011E-02  1.454E+00
   1    4    5     2     1    4.2107E+01  3.6245E-01   4.1744E+01  0.000E+00  0.000E+00  0.000E+00  1.07358E+03  1.647E+00  1.200E+01  7.800E-02  1.549E+00
   1    5    6     2     2    4.1744E+01  2.7835E-01   4.1466E+01  0.000E+00  0.000E+00  0.000E+00  1.06815E+03  1.639E+00  1.200E+01  6.000E-02  1.546E+00
   1    6    6     2     3    4.1466E+01  2.7796E-01   4.1188E+01  0.000E+00  0.000E+00  0.000E+00  1.06343E+03  1.633E+00  1.200E+01  6.000E-02  1.544E+00
   1    7    6     2     4    4.1188E+01  2.7756E-01   4.0910E+01  0.000E+00  0.000E+00  0.000E+00  1.05870E+03  1.626E+00  1.200E+01  6.000E-02  1.542E+00
   1    8    6     2     5    4.0910E+01  2.7717E-01   4.0633E+01  0.000E+00  0.000E+00  0.000E+00  1.05398E+03  1.619E+00  1.200E+01  6.000E-02  1.540E+00
   1    3    5     3     1    2.0000E+00  2.8252E-01   1.7175E+00  0.000E+00  0.000E+00  0.000E+00  1.07555E+03  1.909E+00  9.636E+00  7.227E-02  1.955E+00
   1    3    6     3     2    1.7175E+00  2.4905E-01   1.4684E+00  0.000E+00  0.000E+00  0.000E+00  1.07264E+03  1.727E+00  8.909E+00  6.682E-02  1.864E+00
   1    3    7     3     3    1.4684E+00  1.9718E-01   1.2712E+00  0.000E+00  0.000E+00  0.000E+00  1.06987E+03  1.555E+00  8.218E+00  5.547E-02  1.777E+00
   1    4    8     3     4    1.2712E+00  2.2567E-01   1.0456E+00  0.000E+00  0.000E+00  0.000E+00  1.06682E+03  1.364E+00  7.455E+00  6.709E-02  1.682E+00
   1    5    8     3     5    1.0456E+00  1.5790E-01   8.8768E-01  0.000E+00  0.000E+00  0.000E+00  1.06362E+03  1.164E+00  6.655E+00  4.991E-02  1.582E+00
   1    6    8     3     6    8.8768E-01  5.5980E-02   8.3170E-01  0.000E+00  0.000E+00  0.000E+00  1.06158E+03  1.036E+00  6.145E+00  1.844E-02  1.518E+00
   1    5   10     4     1    1.0000E+01  9.0919E-02   9.9091E+00  0.000E+00  0.000E+00  0.000E+00  1.07836E+03  6.368E-01  1.000E+01  2.500E-02  1.212E+00
   1    5    9     4     2    9.9091E+00  1.8158E-01   9.7275E+00  0.000E+00  0.000E+00  0.000E+00  1.07154E+03  6.315E-01  1.000E+01  5.000E-02  1.211E+00
   1    6    8     4     3    9.7275E+00  1.2689E-01   9.6006E+00  0.000E+00  0.000E+00  0.000E+00  1.06381E+03  6.256E-01  1.000E+01  3.500E-02  1.209E+00
   1    6    8     5     1    1.0432E+01  2.2686E-01   1.0205E+01  0.000E+00  0.000E+00  0.000E+00  1.05868E+03  6.790E-01  1.542E+01  6.166E-02  1.226E+00
   1    7    7     5     2    1.0205E+01  2.7894E-01   9.9265E+00  0.000E+00  0.000E+00  0.000E+00  1.05417E+03  6.732E-01  1.519E+01  7.594E-02  1.224E+00
   1    8    7     5     3    9.9265E+00  1.9221E-01   9.7343E+00  0.000E+00  0.000E+00  0.000E+00  1.04992E+03  6.676E-01  1.497E+01  5.241E-02  1.223E+00
   1    8    6     5     4    9.7343E+00  1.3577E-01   9.5985E+00  0.000E+00  0.000E+00  0.000E+00  1.04691E+03  6.637E-01  1.482E+01  3.706E-02  1.221E+00
   1    9    6     6     1    9.5985E+00  2.2097E-01   9.3776E+00  0.000E+00  0.000E+00  0.000E+00  1.04341E+03  6.828E-01  1.200E+01  6.000E-02  1.228E+00
   1   10    7     6     2    9.3776E+00  2.2039E-01   9.1572E+00  0.000E+00  0.000E+00  0.000E+00  1.03885E+03  6.732E-01  1.200E+01  6.000E-02  1.224E+00
   1   11    7     6     3    9.1572E+00  2.1981E-01   8.9374E+00  0.000E+00  0.000E+00  0.000E+00  1.03430E+03  6.636E-01  1.200E+01  6.000E-02  1.221E+00
   1   12    7     6     4    8.9374E+00  2.1923E-01   8.7181E+00  0.000E+00  0.000E+00  0.000E+00  1.02974E+03  6.539E-01  1.200E+01  6.000E-02  1.218E+00
   1   13    7     6     5    8.7181E+00 -1.1688E-01   8.8350E+00  0.000E+00  0.000E+00  0.000E+00  1.02656E+03  6.516E-01  1.200E+01  2.400E-01 -1.623E-01
   1   14    9     7     1    1.5000E+02  1.3366E+00   1.4866E+02  0.000E+00  0.000E+00  0.000E+00  1.03987E+03  2.288E+00  5.529E+01  5.593E-01  7.966E-01
   1   13    8     7     2    1.4866E+02  1.8328E+00   1.4683E+02  0.000E+00  0.000E+00  0.000E+00  1.03478E+03  2.279E+00  5.526E+01  6.148E-01  9.937E-01
   1   13    7     7     3    1.4683E+02  1.4755E+00   1.4536E+02  0.000E+00  0.000E+00  0.000E+00  1.02969E+03  2.270E+00  5.522E+01  5.585E-01  8.807E-01
   1   13    6     8     1    1.5419E+02  8.3514E-01   1.5335E+02  0.000E+00  0.000E+00  0.000E+00  1.02472E+03  2.843E+00  4.123E+01  4.201E-01  6.626E-01
   1   13    5     8     2    1.5335E+02  1.1701E-01   1.5324E+02  0.000E+00  0.000E+00  0.000E+00  1.01846E+03  2.840E+00  4.118E+01  4.196E-01  9.295E-02
   1   13    4     8     3    1.5324E+02 -2.5900E+00   1.5583E+02  0.000E+00  0.000E+00  0.000E+00  1.01222E+03  2.848E+00  4.130E+01  4.209E+00 -2.051E-01
   1   13    3     8     4    1.5583E+02 -3.7339E+00   1.5956E+02  0.000E+00  0.000E+00  0.000E+00  1.00600E+03  2.870E+00  4.162E+01  4.241E+00 -2.935E-01
   1   13    2     8     5    1.5956E+02 -2.6138E+00   1.6218E+02  0.000E+00  0.000E+00  0.000E+00  9.99767E+02  2.892E+00  4.193E+01  4.273E+00 -2.039E-01
   1   13    1     8     6    1.6218E+02 -2.0030E+00   1.6418E+02  0.000E+00  0.000E+00  0.000E+00  9.94782E+02  2.907E+00  4.215E+01  2.577E+00 -2.591E-01
   1    8    6     9     1    4.0633E+01  0.0000E+00   4.0633E+01  0.000E+00  0.000E+00  0.000E+00  1.08401E+03  5.255E+00  4.000E+00  0.000E+00  2.752E+00
   1    8    5     9     2    4.0633E+01  0.0000E+00   4.0633E+01  0.000E+00  0.000E+00  0.000E+00  1.08351E+03  5.255E+00  4.000E+00  0.000E+00  2.752E+00





UNSATURATED ZONE PACKAGE VOLUMETRIC BUDGET FOR  TIME STEP    30 STRESS PERIOD    9
  ------------------------------------------------------------------------------



     CUMULATIVE VOLUMES      L**3       RATES FOR THIS TIME STEP      L**3/T
     ------------------                 ------------------------

           IN:                                      IN:
           ---                                      ---
        INFILTRATION =  1563192407.6988          INFILTRATION =          99.6722

          OUT:                                     OUT:
          ----                                     ----
              UZF ET =   394360294.2536                UZF ET =          49.5675
        UZF RECHARGE =   765802794.0723          UZF RECHARGE =         100.6977

            IN - OUT =   403029319.3729              IN - OUT =         -50.5930

          STORAGE:                                 STORAGE:
          --------                                 --------
      STORAGE CHANGE =   403031424.7183        STORAGE CHANGE =         -50.5930

 PERCENT DISCREPANCY IS DIFFERENCE BETWEEN IN-OUT MINUS CHANGE IN STORAGE
 DIVIDED BY THE AVERAGE OF IN AND OUT TIMES 100

 PERCENT DISCREPANCY =          -0.00     PERCENT DISCREPANCY =           0.00






1
  VOLUMETRIC BUDGET FOR AGRICULTURAL FIELDS AT  END OF TIME STEP   30, STRESS PERIOD   9
  ------------------------------------------------------------------------------

     CUMULATIVE VOLUMES      L**3       RATES FOR THIS TIME STEP      L**3/T
     ------------------                 ------------------------

           IN:                                      IN:
           ---                                      ---
           AG WELLS      =  1024023808.0000             AG WELLS      =          58.1908
      DIVERSION SEGMENTS =   521252864.0000        DIVERSION SEGMENTS =          40.6331
           GW IRRIGATION =           0.0000             GW IRRIGATION =           0.0000
           SW IRRIGATION =           0.0000             SW IRRIGATION =           0.0000
        SYSTEM LOSSES GW =           0.0000          SYSTEM LOSSES GW =           0.0000
        SYSTEM LOSSES SW =           0.0000          SYSTEM LOSSES SW =           0.0000

                TOTAL IN =  1545276672.0000                  TOTAL IN =          98.8239

          OUT:                                     OUT:
          ----                                     ----
           AG WELLS      =           0.0000             AG WELLS      =           0.0000
      DIVERSION SEGMENTS =           0.0000        DIVERSION SEGMENTS =           0.0000
           GW IRRIGATION =  1024023808.0000             GW IRRIGATION =          58.1908
           SW IRRIGATION =   521262816.0000             SW IRRIGATION =          40.6339
        SYSTEM LOSSES GW =           0.0000          SYSTEM LOSSES GW =           0.0000
        SYSTEM LOSSES SW =           0.0000          SYSTEM LOSSES SW =           0.0000

               TOTAL OUT =  1545286656.0000                 TOTAL OUT =          98.8247

                IN - OUT =       -9984.0000                  IN - OUT =      -8.0872E-04

     PERCENT DISCREPANCY =          -0.00         PERCENT DISCREPANCY =          -0.00



1
  VOLUMETRIC BUDGET FOR ENTIRE MODEL AT END OF TIME STEP   30, STRESS PERIOD   9
  ------------------------------------------------------------------------------

     CUMULATIVE VOLUMES      L**3       RATES FOR THIS TIME STEP      L**3/T
     ------------------                 ------------------------

           IN:                                      IN:
           ---                                      ---
             STORAGE     =   995577600.0000               STORAGE     =          17.7615
       CONSTANT HEAD     =           0.0000         CONSTANT HEAD     =           0.0000
     HEAD DEP BOUNDS     =     6036683.0000       HEAD DEP BOUNDS     =           0.2858
      STREAM LEAKAGE     =   255714576.0000        STREAM LEAKAGE     =          11.9955
        UZF RECHARGE     =   765802752.0000          UZF RECHARGE     =         100.6977
               GW ET     =           0.0000                 GW ET     =           0.0000
     SURFACE LEAKAGE     =           0.0000       SURFACE LEAKAGE     =           0.0000
           AG WELLS      =           0.0000             AG WELLS      =           0.0000

                TOTAL IN =  2023131648.0000                  TOTAL IN =         130.7405

          OUT:                                     OUT:
          ----                                     ----
             STORAGE     =   761485888.0000               STORAGE     =          61.2078
       CONSTANT HEAD     =           0.0000         CONSTANT HEAD     =           0.0000
     HEAD DEP BOUNDS     =     6121677.0000       HEAD DEP BOUNDS     =           0.2873
      STREAM LEAKAGE     =   231446928.0000        STREAM LEAKAGE     =          11.0577
        UZF RECHARGE     =           0.0000          UZF RECHARGE     =           0.0000
               GW ET     =       56916.5898                 GW ET     =           0.0000
     SURFACE LEAKAGE     =           0.0000       SURFACE LEAKAGE     =           0.0000
           AG WELLS      =  1024023808.0000             AG WELLS      =          58.1908

               TOTAL OUT =  2023135232.0000                 TOTAL OUT =         130.7435

                IN - OUT =       -3584.0000                  IN - OUT =      -3.0365E-03

     PERCENT DISCREPANCY =          -0.00         PERCENT DISCREPANCY =          -0.00






         TIME SUMMARY AT END OF TIME STEP   30 IN STRESS PERIOD    9
                    SECONDS     MINUTES      HOURS       DAYS        YEARS
                    -----------------------------------------------------------
   TIME STEP LENGTH  87667.      1461.1      24.352      1.0147     2.77799E-03
 STRESS PERIOD TIME 2.63000E+06  43833.      730.56      30.440     8.33397E-02
         TOTAL TIME 2.11264E+07 3.52107E+05  5868.4      244.52     0.66945    
1
1
                            STRESS PERIOD NO.   10, LENGTH =   2630000.    
                            -----------------------------------------------

                              NUMBER OF TIME STEPS =    30

                               MULTIPLIER FOR DELT =     1.000

                            INITIAL TIME STEP SIZE =   87666.66    

 REUSING NON-PARAMETER GHB CELLS FROM LAST STRESS PERIOD

      2 GHB CELLS

 REUSING STREAM SEGMENT DATA FROM LAST STRESS PERIOD



            AREAL INFILTRATION RATE
 READING ON UNIT   19 WITH FORMAT: (FREE)              

            1           2           3           4           5           6           7           8           9          10
 ........................................................................................................................
   1   1.0000E-10  2.0000E-10   0.000       0.000       0.000       0.000       0.000       0.000       0.000       0.000    
   2   2.0000E-10  1.0000E-10  2.0000E-10   0.000       0.000      8.0000E-10  8.0000E-10  5.0000E-10   0.000       0.000    
   3    0.000      5.0000E-10  1.0000E-10  1.0000E-10  8.0000E-10  8.0000E-10  5.0000E-10  5.0000E-10   0.000       0.000    
   4   8.0000E-10  5.0000E-10  1.0000E-10  1.0000E-10  1.0000E-10  1.0000E-10  1.0000E-10  1.0000E-10  2.0000E-10   0.000    
   5   8.0000E-10  5.0000E-10  1.0000E-10  1.0000E-10  1.0000E-10  1.0000E-10  1.0000E-10  1.0000E-10  1.0000E-10  1.0000E-10
   6   8.0000E-10  5.0000E-10  5.0000E-10  2.0000E-10  2.0000E-10  1.0000E-10  1.0000E-10  1.0000E-10  1.0000E-10  5.0000E-10
   7   8.0000E-10  5.0000E-10  5.0000E-10  2.0000E-10  2.0000E-10  1.0000E-10  1.0000E-10  2.0000E-10  2.0000E-10   0.000    
   8    0.000      5.0000E-10  5.0000E-10  2.0000E-10  2.0000E-10  1.0000E-10  1.0000E-10  2.0000E-10  5.0000E-10   0.000    
   9    0.000      5.0000E-10  5.0000E-10  2.0000E-10  2.0000E-10  1.0000E-10  1.0000E-10  2.0000E-10  5.0000E-10   0.000    
  10    0.000      5.0000E-10  5.0000E-10  2.0000E-10  2.0000E-10  1.0000E-10  1.0000E-10  2.0000E-10  5.0000E-10  8.0000E-10
  11    0.000      1.0000E-10  1.0000E-10  1.0000E-10  1.0000E-10  1.0000E-10  1.0000E-10  2.0000E-10  5.0000E-10   0.000    
  12   1.0000E-10  1.0000E-10  1.0000E-10  1.0000E-10  1.0000E-10  1.0000E-10  1.0000E-10  1.0000E-10  2.0000E-10   0.000    
  13   1.0000E-10  1.0000E-10  2.0000E-10  2.0000E-10  2.0000E-10  2.0000E-10  2.0000E-10  1.0000E-10  1.0000E-10   0.000    
  14    0.000      2.0000E-10  5.0000E-10  5.0000E-10  5.0000E-10  5.0000E-10  5.0000E-10  2.0000E-10  1.0000E-10   0.000    
  15    0.000       0.000      8.0000E-10  8.0000E-10  8.0000E-10  8.0000E-10   0.000       0.000       0.000       0.000    

                  ET RATE =  7.500000E-08

 USING ET EXTINCTION DEPTH FROM PREVIOUS STRESS PERIOD. CURRENT PERIOD IS:      10

 USING EXTINCTION WATER CONTENT FROM PREVIOUS STRESS PERIOD. CURRENT PERIOD IS:      10

 USING AIR ENTRY PRESSURE FROM PREVIOUS STRESS PERIOD. CURRENT PERIOD IS:      10

 USING ROOT PRESSURE HEAD FROM PREVIOUS STRESS PERIOD. CURRENT PERIOD IS:      10

 USING ROOT ACTIVITY FROM PREVIOUS STRESS PERIOD. CURRENT PERIOD IS:      10

 PROCESSING AG STRESS PERIOD DATA

 READING AG STRESS PERIOD DATA

 READING IRRIGATION SEGMENT

 READING IRRIGATION WELL

 READING SUPPLEMENTAL WELL

 END PROCESSING AG STRESS PERIOD DATA OPTIONS
 
 SOLVING FOR HEAD 
                                                   Max.-Head-Change                         Max.-Flux-Residual
  Residual-Control   Outer-Iter.   Inner-Iter.     Column Row Layer    Maximum-Head-Change  Column Row Layer    Maximum-Flux-Residual          L2-NORM 
          0                 1           2             4    7     1       0.3064850518E+00       4    7    1         0.1656471081E+02      0.2771344827E+02
          0                 2           2             4    7     1       0.1310577113E+00       4    7    1         0.7116938143E+01      0.7522306293E+01
          0                 3           2             4    7     1       0.6237402957E-01       4    7    1         0.3388884557E+01      0.3486789945E+01
          0                 4           2             4    7     1       0.2969264805E-01       4    7    1         0.1612748058E+01      0.1663898627E+01
          0                 5           2             4    7     1       0.1413877274E-01       4    7    1         0.7677877808E+00      0.7951439097E+00
          0                 6           2             4    7     1       0.6734249208E-02       4    7    1         0.3656151328E+00      0.3801446053E+00
          0                 7           2             4    7     1       0.3208337327E-02       4    7    1         0.1741494460E+00      0.1818129307E+00
          0                 8           2             4    7     1       0.1528913641E-02       4    7    1         0.8297223209E-01      0.8698950875E-01
          0                 9           2             4    7     1       0.7287802485E-03       4    7    1         0.3954168938E-01      0.4163599961E-01
          0                10           2             4    7     1       0.3474717321E-03       4    7    1         0.1884898927E-01      0.1993537705E-01
                                                   Max.-Head-Change                         Max.-Flux-Residual
  Residual-Control   Outer-Iter.   Inner-Iter.     Column Row Layer    Maximum-Head-Change  Column Row Layer    Maximum-Flux-Residual          L2-NORM 
          0                11           1             4    7     1       0.1657105275E-03       4    7    1         0.8987313189E-02      0.9548311549E-02
          0                12           1             4    7     1       0.7904727560E-04       4    7    1         0.4286266213E-02      0.4574764775E-02

    ------------------------------------------------
       NWT REQUIRED           12 OUTER ITERATIONS 
       AND A TOTAL OF         22 INNER ITERATIONS.
    ------------------------------------------------

 NO OUTPUT CONTROL FOR STRESS PERIOD   10   TIME STEP    1
 
 SOLVING FOR HEAD 
                                                   Max.-Head-Change                         Max.-Flux-Residual
  Residual-Control   Outer-Iter.   Inner-Iter.     Column Row Layer    Maximum-Head-Change  Column Row Layer    Maximum-Flux-Residual          L2-NORM 
          0                 1           2             4    6     1       0.2773260842E+00       4    6    1         0.1480277427E+02      0.2238175276E+02
          0                 2           2             4    6     1       0.1322205380E+00       4    6    1         0.7197112905E+01      0.7414236054E+01
          0                 3           2             4    6     1       0.6290894931E-01       4    6    1         0.3426218545E+01      0.3431652591E+01
          0                 4           2             4    6     1       0.2982755405E-01       4    6    1         0.1625726057E+01      0.1626061405E+01
          0                 5           2             4    6     1       0.1413865801E-01       4    6    1         0.7707159972E+00      0.7707844646E+00
          0                 6           2             4    6     1       0.6701519075E-02       4    6    1         0.3653206264E+00      0.3653461890E+00
          0                 7           2             4    6     1       0.3176381305E-02       4    6    1         0.1731558055E+00      0.1731672637E+00
          0                 8           2             4    6     1       0.1505534519E-02       4    6    1         0.8207220398E-01      0.8207756688E-01
          0                 9           2             4    6     1       0.7135895915E-03       4    6    1         0.3890040979E-01      0.3890294454E-01
          0                10           2             4    6     1       0.3382254040E-03       4    6    1         0.1843792304E-01      0.1843912371E-01
                                                   Max.-Head-Change                         Max.-Flux-Residual
  Residual-Control   Outer-Iter.   Inner-Iter.     Column Row Layer    Maximum-Head-Change  Column Row Layer    Maximum-Flux-Residual          L2-NORM 
          0                11           2             4    6     1       0.1603112216E-03       4    6    1         0.8739160984E-02      0.8739730033E-02
          0                12           1             4    6     1       0.7598390629E-04       4    6    1         0.4142165552E-02      0.4142435340E-02

    ------------------------------------------------
       NWT REQUIRED           12 OUTER ITERATIONS 
       AND A TOTAL OF         23 INNER ITERATIONS.
    ------------------------------------------------

 NO OUTPUT CONTROL FOR STRESS PERIOD   10   TIME STEP    2
 
 SOLVING FOR HEAD 
                                                   Max.-Head-Change                         Max.-Flux-Residual
  Residual-Control   Outer-Iter.   Inner-Iter.     Column Row Layer    Maximum-Head-Change  Column Row Layer    Maximum-Flux-Residual          L2-NORM 
          0                 1           2             4    6     1       0.2502089615E+00       4    6    1         0.1368733700E+02      0.1746042421E+02
          0                 2           2             4    6     1       0.1185391537E+00       4    6    1         0.6459985492E+01      0.6548633908E+01
          0                 3           2             4    6     1       0.3580062466E-01       4    6    1         0.1952437442E+01      0.1953854900E+01
          0                 4           2             4    6     1       0.3832055378E-02       4    6    1         0.2088943195E+00      0.2089383961E+00
          0                 5           2             4    6     1       0.4101903432E-03       4    6    1         0.2236344957E-01      0.2236527322E-01
          0                 6           1             4    6     1       0.4390767171E-04       4    6    1         0.2393643451E-02      0.2393863395E-02

    ------------------------------------------------
       NWT REQUIRED            6 OUTER ITERATIONS 
       AND A TOTAL OF         11 INNER ITERATIONS.
    ------------------------------------------------

 NO OUTPUT CONTROL FOR STRESS PERIOD   10   TIME STEP    3
 
 SOLVING FOR HEAD 
                                                   Max.-Head-Change                         Max.-Flux-Residual
  Residual-Control   Outer-Iter.   Inner-Iter.     Column Row Layer    Maximum-Head-Change  Column Row Layer    Maximum-Flux-Residual          L2-NORM 
          0                 1           2             4    6     1       0.2285305120E+00       4    6    1         0.1248722065E+02      0.1615085689E+02
          0                 2           2             5    8     1      -0.3457151324E-01       5    8    1        -0.1854374352E+01      0.3801674495E+01
          0                 3           2             4    7     1       0.3779673470E-01       5    8    1         0.2055599648E+01      0.4884022796E+01
          0                 4           2             4    6     1       0.4966839472E-02       4    6    1         0.2903988374E+00      0.4313064406E+00
          0                 5           2             4    6     1       0.7698599213E-03       4    6    1         0.4419795566E-01      0.4608317620E-01
          0                 6           2             4    6     1       0.1193224601E-03       4    6    1         0.6878275866E-02      0.6879926394E-02
          0                 7           1             4    6     1       0.1849311637E-04       4    6    1         0.1065655376E-02      0.1065669931E-02

    ------------------------------------------------
       NWT REQUIRED            7 OUTER ITERATIONS 
       AND A TOTAL OF         13 INNER ITERATIONS.
    ------------------------------------------------

 NO OUTPUT CONTROL FOR STRESS PERIOD   10   TIME STEP    4
 
 SOLVING FOR HEAD 
                                                   Max.-Head-Change                         Max.-Flux-Residual
  Residual-Control   Outer-Iter.   Inner-Iter.     Column Row Layer    Maximum-Head-Change  Column Row Layer    Maximum-Flux-Residual          L2-NORM 
          0                 1           2             4    6     1      -0.1163458891E+00       4    6    1        -0.6332936568E+01      0.1161646349E+02
          0                 2           2             4    6     1       0.1107635147E-01       4    6    1         0.6197697334E+00      0.1154102280E+01
          0                 3           2             4    6     1      -0.3401264342E-01       4    6    1        -0.1906042721E+01      0.4634019964E+01
          0                 4           2             4    7     1       0.3417237413E-01       4    6    1         0.1940611816E+01      0.4751297220E+01
          0                 5           2             4    7     1      -0.4213812458E-03       4    6    1        -0.2458300499E-01      0.6023313460E-01
          0                 6           1             4    7     1      -0.6197355829E-05       5    6    1        -0.3623547741E-03      0.8885031657E-03

    ------------------------------------------------
       NWT REQUIRED            6 OUTER ITERATIONS 
       AND A TOTAL OF         11 INNER ITERATIONS.
    ------------------------------------------------

 NO OUTPUT CONTROL FOR STRESS PERIOD   10   TIME STEP    5
 
 SOLVING FOR HEAD 
                                                   Max.-Head-Change                         Max.-Flux-Residual
  Residual-Control   Outer-Iter.   Inner-Iter.     Column Row Layer    Maximum-Head-Change  Column Row Layer    Maximum-Flux-Residual          L2-NORM 
          0                 1           2             4    6     1      -0.1113395957E+00       4    6    1        -0.6058258988E+01      0.1111552155E+02
          0                 2           2             4    6     1       0.1082912744E-01       4    6    1         0.6057447441E+00      0.1111293649E+01
          0                 3           2             4    7     1      -0.3401472851E-01       4    6    1        -0.1905234262E+01      0.4632927503E+01
          0                 4           2             4    7     1       0.3417571726E-01       4    6    1         0.1940751894E+01      0.4751678358E+01
          0                 5           2             4    7     1      -0.4214224724E-03       4    6    1        -0.2458475445E-01      0.6023811301E-01
          0                 6           1             4    7     1      -0.6197962283E-05       5    6    1        -0.3623782832E-03      0.8886025599E-03

    ------------------------------------------------
       NWT REQUIRED            6 OUTER ITERATIONS 
       AND A TOTAL OF         11 INNER ITERATIONS.
    ------------------------------------------------

 NO OUTPUT CONTROL FOR STRESS PERIOD   10   TIME STEP    6
 
 SOLVING FOR HEAD 
                                                   Max.-Head-Change                         Max.-Flux-Residual
  Residual-Control   Outer-Iter.   Inner-Iter.     Column Row Layer    Maximum-Head-Change  Column Row Layer    Maximum-Flux-Residual          L2-NORM 
          0                 1           2             4    6     1      -0.1063616254E+00       4    6    1        -0.5785307048E+01      0.1063686018E+02
          0                 2           2             4    6     1       0.1034501739E-01       4    6    1         0.5784571803E+00      0.1063441561E+01
          0                 3           2             4    7     1      -0.3402076521E-01       4    6    1        -0.1903489879E+01      0.4631481235E+01
          0                 4           2             4    7     1       0.3417888342E-01       4    6    1         0.1940845751E+01      0.4752026362E+01
          0                 5           2             4    7     1      -0.4214615183E-03       4    6    1        -0.2458590690E-01      0.6024268044E-01
          0                 6           1             4    7     1      -0.6198536253E-05       5    6    1        -0.3624009391E-03      0.8886441138E-03

    ------------------------------------------------
       NWT REQUIRED            6 OUTER ITERATIONS 
       AND A TOTAL OF         11 INNER ITERATIONS.
    ------------------------------------------------

 NO OUTPUT CONTROL FOR STRESS PERIOD   10   TIME STEP    7
 
 SOLVING FOR HEAD 
                                                   Max.-Head-Change                         Max.-Flux-Residual
  Residual-Control   Outer-Iter.   Inner-Iter.     Column Row Layer    Maximum-Head-Change  Column Row Layer    Maximum-Flux-Residual          L2-NORM 
          0                 1           2             4    6     1      -0.1016425898E+00       4    6    1        -0.5526642341E+01      0.1018578227E+02
          0                 2           2             4    6     1       0.9886083566E-02       4    6    1         0.5525975766E+00      0.1018346272E+01
          0                 3           2             4    7     1      -0.3402581002E-01       4    6    1        -0.1901838428E+01      0.4630103089E+01
          0                 4           2             4    7     1       0.3418189432E-01       4    6    1         0.1940936409E+01      0.4752359759E+01
          0                 5           2             4    7     1      -0.4214986490E-03       4    6    1        -0.2458702099E-01      0.6024700247E-01
          0                 6           1             4    7     1      -0.6199082219E-05       5    6    1        -0.3624227725E-03      0.8887168746E-03

    ------------------------------------------------
       NWT REQUIRED            6 OUTER ITERATIONS 
       AND A TOTAL OF         11 INNER ITERATIONS.
    ------------------------------------------------

 NO OUTPUT CONTROL FOR STRESS PERIOD   10   TIME STEP    8
 
 SOLVING FOR HEAD 
                                                   Max.-Head-Change                         Max.-Flux-Residual
  Residual-Control   Outer-Iter.   Inner-Iter.     Column Row Layer    Maximum-Head-Change  Column Row Layer    Maximum-Flux-Residual          L2-NORM 
          0                 1           2             4    6     1      -0.9716749519E-01       4    6    1        -0.5281433996E+01      0.9760386213E+01
          0                 2           2             4    6     1       0.9450661508E-02       4    6    1         0.5280829260E+00      0.9761313003E+00
          0                 3           2             4    7     1      -0.3402995612E-01       4    6    1        -0.1900274812E+01      0.4628790289E+01
          0                 4           2             4    7     1       0.3418476540E-01       4    6    1         0.1941024406E+01      0.4752680229E+01
          0                 5           2             4    7     1      -0.4215340555E-03       4    6    1        -0.2458811157E-01      0.6025121883E-01
          0                 6           1             4    7     1      -0.6199603093E-05       5    6    1        -0.3624438432E-03      0.8887785411E-03

    ------------------------------------------------
       NWT REQUIRED            6 OUTER ITERATIONS 
       AND A TOTAL OF         11 INNER ITERATIONS.
    ------------------------------------------------

 NO OUTPUT CONTROL FOR STRESS PERIOD   10   TIME STEP    9
 
 SOLVING FOR HEAD 
                                                   Max.-Head-Change                         Max.-Flux-Residual
  Residual-Control   Outer-Iter.   Inner-Iter.     Column Row Layer    Maximum-Head-Change  Column Row Layer    Maximum-Flux-Residual          L2-NORM 
          0                 1           2             4    6     1      -0.9292281869E-01       4    6    1        -0.5048900618E+01      0.9358651220E+01
          0                 2           2             4    6     1       0.9038058015E-02       4    6    1         0.5048351676E+00      0.9356545588E+00
          0                 3           2             4    7     1      -0.3403327976E-01       4    6    1        -0.1898793566E+01      0.4627536972E+01
          0                 4           2             4    7     1       0.3418749904E-01       4    6    1         0.1941109399E+01      0.4752987513E+01
          0                 5           2             4    7     1      -0.4215677666E-03       4    6    1        -0.2458915507E-01      0.6025521036E-01
          0                 6           1             4    7     1      -0.6200099100E-05       5    6    1        -0.3624641849E-03      0.8888368775E-03

    ------------------------------------------------
       NWT REQUIRED            6 OUTER ITERATIONS 
       AND A TOTAL OF         11 INNER ITERATIONS.
    ------------------------------------------------

 NO OUTPUT CONTROL FOR STRESS PERIOD   10   TIME STEP   10
 
 SOLVING FOR HEAD 
                                                   Max.-Head-Change                         Max.-Flux-Residual
  Residual-Control   Outer-Iter.   Inner-Iter.     Column Row Layer    Maximum-Head-Change  Column Row Layer    Maximum-Flux-Residual          L2-NORM 
          0                 1           2             4    6     1      -0.8889502073E-01       4    6    1        -0.4828337673E+01      0.8979110096E+01
          0                 2           2             4    6     1       0.8646336121E-02       4    6    1         0.4827839006E+00      0.8977089907E+00
          0                 3           2             4    7     1      -0.3403586206E-01       4    6    1        -0.1897390358E+01      0.4626342137E+01
          0                 4           2             4    7     1       0.3419010819E-01       4    6    1         0.1941191853E+01      0.4753283042E+01
          0                 5           2             4    7     1      -0.4215999431E-03       4    6    1        -0.2459016818E-01      0.6025910506E-01
          0                 6           1             4    7     1      -0.6200572255E-05       5    6    1        -0.3624838605E-03      0.8889034830E-03

    ------------------------------------------------
       NWT REQUIRED            6 OUTER ITERATIONS 
       AND A TOTAL OF         11 INNER ITERATIONS.
    ------------------------------------------------

 NO OUTPUT CONTROL FOR STRESS PERIOD   10   TIME STEP   11
 
 SOLVING FOR HEAD 
                                                   Max.-Head-Change                         Max.-Flux-Residual
  Residual-Control   Outer-Iter.   Inner-Iter.     Column Row Layer    Maximum-Head-Change  Column Row Layer    Maximum-Flux-Residual          L2-NORM 
          0                 1           2             4    6     1      -0.8507169284E-01       4    6    1        -0.4619046345E+01      0.8620455164E+01
          0                 2           2             4    6     1       0.8274496448E-02       4    6    1         0.4618593034E+00      0.8618510608E+00
          0                 3           2             4    7     1      -0.3403777488E-01       4    6    1        -0.1896060656E+01      0.4625202349E+01
          0                 4           2             4    7     1       0.3419260135E-01       4    6    1         0.1941271982E+01      0.4753567577E+01
          0                 5           2             4    7     1      -0.4216306889E-03       4    7    1        -0.2459193608E-01      0.6026280487E-01
          0                 6           1             4    7     1      -0.6201024352E-05       5    6    1        -0.3625029149E-03      0.8889684731E-03

    ------------------------------------------------
       NWT REQUIRED            6 OUTER ITERATIONS 
       AND A TOTAL OF         11 INNER ITERATIONS.
    ------------------------------------------------

 NO OUTPUT CONTROL FOR STRESS PERIOD   10   TIME STEP   12
 
 SOLVING FOR HEAD 
                                                   Max.-Head-Change                         Max.-Flux-Residual
  Residual-Control   Outer-Iter.   Inner-Iter.     Column Row Layer    Maximum-Head-Change  Column Row Layer    Maximum-Flux-Residual          L2-NORM 
          0                 1           2             4    6     1      -0.8144129957E-01       4    6    1        -0.4420387069E+01      0.8281291050E+01
          0                 2           2             4    6     1       0.7921417648E-02       4    6    1         0.4419974700E+00      0.8279415799E+00
          0                 3           2             4    7     1      -0.3403907471E-01       4    6    1        -0.1894800108E+01      0.4624113931E+01
          0                 4           2             4    7     1       0.3419498233E-01       4    6    1         0.1941349724E+01      0.4753841288E+01
          0                 5           2             4    7     1      -0.4216600505E-03       4    7    1        -0.2459362809E-01      0.6026638262E-01
          0                 6           1             4    7     1      -0.6201456061E-05       5    6    1        -0.3625213626E-03      0.8890143257E-03

    ------------------------------------------------
       NWT REQUIRED            6 OUTER ITERATIONS 
       AND A TOTAL OF         11 INNER ITERATIONS.
    ------------------------------------------------

 NO OUTPUT CONTROL FOR STRESS PERIOD   10   TIME STEP   13
 
 SOLVING FOR HEAD 
                                                   Max.-Head-Change                         Max.-Flux-Residual
  Residual-Control   Outer-Iter.   Inner-Iter.     Column Row Layer    Maximum-Head-Change  Column Row Layer    Maximum-Flux-Residual          L2-NORM 
          0                 1           2             4    6     1      -0.7799276776E-01       4    6    1        -0.4231746775E+01      0.7960344318E+01
          0                 2           2             4    6     1       0.7586023263E-02       4    6    1         0.4231371392E+00      0.7958527435E+00
          0                 3           2             4    7     1      -0.3403983086E-01       4    6    1        -0.1893605019E+01      0.4623075349E+01
          0                 4           2             4    7     1       0.3419726378E-01       4    6    1         0.1941425522E+01      0.4754105568E+01
          0                 5           2             4    7     1      -0.4216881857E-03       4    7    1        -0.2459524413E-01      0.6026982462E-01
          0                 6           1             4    7     1      -0.6201869400E-05       5    6    1        -0.3625392665E-03      0.8890630061E-03

    ------------------------------------------------
       NWT REQUIRED            6 OUTER ITERATIONS 
       AND A TOTAL OF         11 INNER ITERATIONS.
    ------------------------------------------------

 NO OUTPUT CONTROL FOR STRESS PERIOD   10   TIME STEP   14
 
 SOLVING FOR HEAD 
                                                   Max.-Head-Change                         Max.-Flux-Residual
  Residual-Control   Outer-Iter.   Inner-Iter.     Column Row Layer    Maximum-Head-Change  Column Row Layer    Maximum-Flux-Residual          L2-NORM 
          0                 1           2             4    6     1      -0.7471544233E-01       4    6    1        -0.4052536382E+01      0.7656370572E+01
          0                 2           2             4    6     1       0.7267277438E-02       4    6    1         0.4052194434E+00      0.7654605837E+00
          0                 3           2             4    7     1      -0.3404008590E-01       4    6    1        -0.1892471149E+01      0.4622082732E+01
          0                 4           2             4    7     1       0.3419944486E-01       4    6    1         0.1941499083E+01      0.4754359988E+01
          0                 5           2             4    7     1      -0.4217150822E-03       4    7    1        -0.2459678399E-01      0.6027311597E-01
          0                 6           1             4    7     1      -0.6202265265E-05       5    6    1        -0.3625565646E-03      0.8892091960E-03

    ------------------------------------------------
       NWT REQUIRED            6 OUTER ITERATIONS 
       AND A TOTAL OF         11 INNER ITERATIONS.
    ------------------------------------------------

 NO OUTPUT CONTROL FOR STRESS PERIOD   10   TIME STEP   15
 
 SOLVING FOR HEAD 
                                                   Max.-Head-Change                         Max.-Flux-Residual
  Residual-Control   Outer-Iter.   Inner-Iter.     Column Row Layer    Maximum-Head-Change  Column Row Layer    Maximum-Flux-Residual          L2-NORM 
          0                 1           2             4    6     1      -0.7160029978E-01       4    6    1        -0.3882262941E+01      0.7391748844E+01
          0                 2           2             4    6     1       0.6964356209E-02       4    6    1         0.3881951221E+00      0.7822897375E+00
          0                 3           2             4    7     1      -0.3403905046E-01       4    6    1        -0.1891395647E+01      0.4575611633E+01
          0                 4           2             4    7     1       0.3419528641E-01       4    6    1         0.1941570884E+01      0.4467602904E+01
          0                 5           2             5    8     1       0.8805087255E-02       5    8    1         0.5136254387E+00      0.5165222251E+00
          0                 6           1             5    8     1       0.4044784325E-02       5    8    1         0.2356194258E+00      0.2356202849E+00
          0                 7           1             5    8     1       0.1858027650E-02       5    8    1         0.1082267739E+00      0.1082274766E+00
          0                 8           1             5    8     1       0.8535010914E-03       5    8    1         0.4971414066E-01      0.4971451883E-01
          0                 9           1             5    8     1       0.3920586913E-03       5    8    1         0.2283613419E-01      0.2283631030E-01
          0                10           1             5    8     1       0.1800914867E-03       5    8    1         0.1048963834E-01      0.1048971934E-01
          0                11           1             5    8     1       0.8272377982E-04       5    8    1         0.4818296715E-02      0.4818333926E-02

    ------------------------------------------------
       NWT REQUIRED           11 OUTER ITERATIONS 
       AND A TOTAL OF         16 INNER ITERATIONS.
    ------------------------------------------------

 NO OUTPUT CONTROL FOR STRESS PERIOD   10   TIME STEP   16
 
 SOLVING FOR HEAD 
                                                   Max.-Head-Change                         Max.-Flux-Residual
  Residual-Control   Outer-Iter.   Inner-Iter.     Column Row Layer    Maximum-Head-Change  Column Row Layer    Maximum-Flux-Residual          L2-NORM 
          0                 1           2             5    8     1       0.1456170332E+00       5    8    1         0.8037948423E+01      0.1071753569E+02
          0                 2           2             5    8     1       0.5958031388E-01       5    8    1         0.3283289996E+01      0.3358914037E+01
          0                 3           2             4    7     1      -0.3403547531E-01       4    6    1        -0.1890374799E+01      0.4459036059E+01
          0                 4           2             4    7     1       0.3420115295E-01       4    6    1         0.1941640891E+01      0.4635932241E+01
          0                 5           2             5    8     1       0.5219547715E-02       5    8    1         0.3047570621E+00      0.3095798440E+00
          0                 6           1             5    8     1       0.9416443680E-03       5    8    1         0.5485848042E-01      0.5486234682E-01
          0                 7           1             5    8     1       0.1698722938E-03       5    8    1         0.9894070839E-02      0.9894427282E-02
          0                 8           1             5    8     1       0.3064356897E-04       5    8    1         0.1784698057E-02      0.1784811182E-02

    ------------------------------------------------
       NWT REQUIRED            8 OUTER ITERATIONS 
       AND A TOTAL OF         13 INNER ITERATIONS.
    ------------------------------------------------

 NO OUTPUT CONTROL FOR STRESS PERIOD   10   TIME STEP   17
 
 SOLVING FOR HEAD 
                                                   Max.-Head-Change                         Max.-Flux-Residual
  Residual-Control   Outer-Iter.   Inner-Iter.     Column Row Layer    Maximum-Head-Change  Column Row Layer    Maximum-Flux-Residual          L2-NORM 
          0                 1           2             5    8     1       0.1321096849E+00       5    8    1         0.7282291569E+01      0.9977961999E+01
          0                 2           2             5    8     1       0.1758774144E-01       5    8    1         0.9716956481E+00      0.1187461389E+01
          0                 3           2             4    7     1      -0.3403582527E-01       4    6    1        -0.1889404733E+01      0.4566550085E+01
          0                 4           2             4    7     1       0.3420240935E-01       4    6    1         0.1941709064E+01      0.4619064544E+01
          0                 5           2             5    8     1       0.5055623997E-02       5    8    1         0.2960318413E+00      0.3009878177E+00
          0                 6           1             5    8     1       0.9091847622E-03       5    8    1         0.5310445807E-01      0.5310837697E-01
          0                 7           1             5    8     1       0.1634975964E-03       5    8    1         0.9547091465E-02      0.9547506162E-02
          0                 8           1             5    8     1       0.2940029756E-04       5    8    1         0.1716646723E-02      0.1716771093E-02

    ------------------------------------------------
       NWT REQUIRED            8 OUTER ITERATIONS 
       AND A TOTAL OF         13 INNER ITERATIONS.
    ------------------------------------------------

 NO OUTPUT CONTROL FOR STRESS PERIOD   10   TIME STEP   18
 
 SOLVING FOR HEAD 
                                                   Max.-Head-Change                         Max.-Flux-Residual
  Residual-Control   Outer-Iter.   Inner-Iter.     Column Row Layer    Maximum-Head-Change  Column Row Layer    Maximum-Flux-Residual          L2-NORM 
          0                 1           2             5    8     1       0.1221702717E+00       5    8    1         0.6747013415E+01      0.9424709530E+01
          0                 2           2             5    8     1       0.1628059491E-01       5    8    1         0.9003342784E+00      0.1115084766E+01
          0                 3           2             4    7     1      -0.3403315613E-01       4    6    1        -0.1888482260E+01      0.4568620420E+01
          0                 4           2             4    7     1       0.3420420747E-01       4    6    1         0.1941775629E+01      0.4618729125E+01
          0                 5           2             5    8     1       0.5050983233E-02       5    8    1         0.2957684944E+00      0.3007292493E+00
          0                 6           1             5    8     1       0.9083209121E-03       5    8    1         0.5305540505E-01      0.5305932845E-01
          0                 7           1             5    8     1       0.1633369869E-03       5    8    1         0.9537963148E-02      0.9538377525E-02
          0                 8           1             5    8     1       0.2937046943E-04       5    8    1         0.1714950025E-02      0.1715074284E-02

    ------------------------------------------------
       NWT REQUIRED            8 OUTER ITERATIONS 
       AND A TOTAL OF         13 INNER ITERATIONS.
    ------------------------------------------------

 NO OUTPUT CONTROL FOR STRESS PERIOD   10   TIME STEP   19
 
 SOLVING FOR HEAD 
                                                   Max.-Head-Change                         Max.-Flux-Residual
  Residual-Control   Outer-Iter.   Inner-Iter.     Column Row Layer    Maximum-Head-Change  Column Row Layer    Maximum-Flux-Residual          L2-NORM 
          0                 1           2             5    8     1       0.1131308506E+00       5    8    1         0.6240229146E+01      0.8908604014E+01
          0                 2           2             5    8     1       0.1507544496E-01       5    8    1         0.8344821486E+00      0.1048990610E+01
          0                 3           2             4    7     1      -0.3402992963E-01       4    6    1        -0.1887604114E+01      0.4570569635E+01
          0                 4           2             4    7     1       0.3420592562E-01       4    6    1         0.1941840450E+01      0.4618432060E+01
          0                 5           2             5    8     1       0.5046719070E-02       5    8    1         0.2955265121E+00      0.3004916877E+00
          0                 6           1             5    8     1       0.1234821331E-02       5    8    1         0.7212697406E-01      0.7212986081E-01
          0                 7           1             5    8     1       0.5655912215E-03       5    8    1         0.3303215418E-01      0.3303238234E-01
          0                 8           1             5    8     1       0.2590575579E-03       5    8    1         0.1512939003E-01      0.1512952498E-01
          0                 9           1             5    8     1       0.1186546987E-03       5    8    1         0.6929557383E-02      0.6929620565E-02
          0                10           1             5    8     1       0.5434613727E-04       5    8    1         0.3173840028E-02      0.3173869026E-02

    ------------------------------------------------
       NWT REQUIRED           10 OUTER ITERATIONS 
       AND A TOTAL OF         15 INNER ITERATIONS.
    ------------------------------------------------

 NO OUTPUT CONTROL FOR STRESS PERIOD   10   TIME STEP   20
 
 SOLVING FOR HEAD 
                                                   Max.-Head-Change                         Max.-Flux-Residual
  Residual-Control   Outer-Iter.   Inner-Iter.     Column Row Layer    Maximum-Head-Change  Column Row Layer    Maximum-Flux-Residual          L2-NORM 
          0                 1           2             5    8     1       0.1048164508E+00       5    8    1         0.5774357600E+01      0.8438920682E+01
          0                 2           2             5    8     1       0.4478303697E-01       5    8    1         0.2477151598E+01      0.2552411538E+01
          0                 3           2             4    7     1      -0.3401865357E-01       4    6    1        -0.1886767551E+01      0.4295088061E+01
          0                 4           2             4    7     1       0.3420704345E-01       4    6    1         0.1941903652E+01      0.4586001400E+01
          0                 5           2             5    8     1       0.1207654434E-01       5    8    1         0.7061527772E+00      0.7082484451E+00
          0                 6           1             5    8     1       0.5531330817E-02       5    8    1         0.3230779937E+00      0.3230787998E+00
          0                 7           1             5    8     1       0.2533446410E-02       5    8    1         0.1479646492E+00      0.1479658268E+00
          0                 8           1             5    8     1       0.1160349733E-02       5    8    1         0.6776862996E-01      0.6776924230E-01
          0                 9           1             5    8     1       0.5314484800E-03       5    8    1         0.3103821051E-01      0.3103849421E-01
          0                10           1             5    8     1       0.2434044431E-03       5    8    1         0.1421542544E-01      0.1421555565E-01
                                                   Max.-Head-Change                         Max.-Flux-Residual
  Residual-Control   Outer-Iter.   Inner-Iter.     Column Row Layer    Maximum-Head-Change  Column Row Layer    Maximum-Flux-Residual          L2-NORM 
          0                11           1             5    8     1       0.1114784442E-03       5    8    1         0.6510556427E-02      0.6510616462E-02
          0                12           1             5    8     1       0.5105618500E-04       5    8    1         0.2981751233E-02      0.2981779549E-02

    ------------------------------------------------
       NWT REQUIRED           12 OUTER ITERATIONS 
       AND A TOTAL OF         17 INNER ITERATIONS.
    ------------------------------------------------

 NO OUTPUT CONTROL FOR STRESS PERIOD   10   TIME STEP   21
 
 SOLVING FOR HEAD 
                                                   Max.-Head-Change                         Max.-Flux-Residual
  Residual-Control   Outer-Iter.   Inner-Iter.     Column Row Layer    Maximum-Head-Change  Column Row Layer    Maximum-Flux-Residual          L2-NORM 
          0                 1           2             5    8     1       0.9436755542E-01       5    8    1         0.5128214924E+01      0.8540240542E+01
          0                 2           2             5    8     1       0.4054030123E-01       5    8    1         0.2237281945E+01      0.2363200994E+01
          0                 3           2             4    7     1      -0.3399236080E-01       4    6    1        -0.1885969835E+01      0.4280755909E+01
          0                 4           2             4    7     1       0.3410585352E-01       4    6    1         0.1941965361E+01      0.4426555637E+01
          0                 5           2             5    8     1       0.1177891507E-01       5    8    1         0.6838899518E+00      0.7475534812E+00
          0                 6           2             5    8     1       0.5412820293E-02       5    8    1         0.3153037745E+00      0.3203846138E+00
          0                 7           2             5    8     1       0.2482684973E-02       5    8    1         0.1448355491E+00      0.1452897372E+00
          0                 8           1             5    8     1       0.1137862343E-02       5    8    1         0.6642072906E-01      0.6647147286E-01
          0                 9           1             5    8     1       0.5213425218E-03       5    8    1         0.3043959964E-01      0.3044773833E-01
          0                10           1             5    8     1       0.2388360013E-03       5    8    1         0.1394613367E-01      0.1394809952E-01
                                                   Max.-Head-Change                         Max.-Flux-Residual
  Residual-Control   Outer-Iter.   Inner-Iter.     Column Row Layer    Maximum-Head-Change  Column Row Layer    Maximum-Flux-Residual          L2-NORM 
          0                11           1             5    8     1       0.1094084280E-03       5    8    1         0.6388775043E-02      0.6389426320E-02
          0                12           1             5    8     1       0.5011740157E-04       5    8    1         0.2926563640E-02      0.2926821726E-02

    ------------------------------------------------
       NWT REQUIRED           12 OUTER ITERATIONS 
       AND A TOTAL OF         19 INNER ITERATIONS.
    ------------------------------------------------

 NO OUTPUT CONTROL FOR STRESS PERIOD   10   TIME STEP   22
 
 SOLVING FOR HEAD 
                                                   Max.-Head-Change                         Max.-Flux-Residual
  Residual-Control   Outer-Iter.   Inner-Iter.     Column Row Layer    Maximum-Head-Change  Column Row Layer    Maximum-Flux-Residual          L2-NORM 
          0                 1           2             4    8     1       0.1426291602E+00       4    8    1         0.7697876296E+01      0.1128061026E+02
          0                 2           2             5    8     1       0.3857272188E-01       5    8    1         0.2096211746E+01      0.2888577860E+01
          0                 3           2             4    7     1      -0.3377522250E-01       4    6    1        -0.1885201564E+01      0.3999427261E+01
          0                 4           2             4    7     1       0.3395217244E-01       4    6    1         0.1942025171E+01      0.4188206761E+01
          0                 5           2             5    8     1       0.1178172147E-01       5    8    1         0.6736455341E+00      0.9765277243E+00
          0                 6           2             5    8     1       0.5500929637E-02       5    8    1         0.3157925782E+00      0.4375451365E+00
          0                 7           2             5    8     1       0.2563478821E-02       5    8    1         0.1473899944E+00      0.2026624496E+00
          0                 8           2             5    8     1       0.1193711869E-02       5    8    1         0.6867419778E-01      0.9432662452E-01
          0                 9           2             5    8     1       0.5557058682E-03       5    8    1         0.3197655713E-01      0.4393050003E-01
          0                10           2             5    8     1       0.2586689779E-03       5    8    1         0.1488537436E-01      0.2046045511E-01
                                                   Max.-Head-Change                         Max.-Flux-Residual
  Residual-Control   Outer-Iter.   Inner-Iter.     Column Row Layer    Maximum-Head-Change  Column Row Layer    Maximum-Flux-Residual          L2-NORM 
          0                11           2             5    8     1       0.1204004670E-03       5    8    1         0.6928628902E-02      0.9529172470E-02
          0                12           1             5    8     1       0.5604131239E-04       5    8    1         0.3224938822E-02      0.4437994081E-02

    ------------------------------------------------
       NWT REQUIRED           12 OUTER ITERATIONS 
       AND A TOTAL OF         23 INNER ITERATIONS.
    ------------------------------------------------

 NO OUTPUT CONTROL FOR STRESS PERIOD   10   TIME STEP   23
 
 SOLVING FOR HEAD 
                                                   Max.-Head-Change                         Max.-Flux-Residual
  Residual-Control   Outer-Iter.   Inner-Iter.     Column Row Layer    Maximum-Head-Change  Column Row Layer    Maximum-Flux-Residual          L2-NORM 
          0                 1           2             4    8     1       0.1368058426E+00       5    7    1         0.7508775918E+01      0.1270680703E+02
          0                 2           2             5    7     1       0.5871000587E-01       5    7    1         0.3231962289E+01      0.4163492679E+01
          0                 3           2             4    6     1      -0.3363082416E-01       4    6    1        -0.1884432841E+01      0.3830561278E+01
          0                 4           2             4    7     1       0.3401418930E-01       4    6    1         0.1942082344E+01      0.4315535154E+01
          0                 5           2             5    7     1       0.1336860528E-01       5    7    1         0.7782647523E+00      0.1099400389E+01
          0                 6           2             5    7     1       0.6131105116E-02       5    7    1         0.3577699916E+00      0.4942914022E+00
          0                 7           2             5    7     1       0.2807270190E-02       5    7    1         0.1640148924E+00      0.2274237822E+00
          0                 8           2             5    7     1       0.1284556217E-02       5    7    1         0.7508713052E-01      0.1049614260E+00
          0                 9           2             4    8     1       0.5944948032E-03       5    7    1         0.3435619486E-01      0.4846226079E-01
          0                10           2             4    8     1       0.2771185929E-03       4    8    1         0.1592492592E-01      0.2237864488E-01
                                                   Max.-Head-Change                         Max.-Flux-Residual
  Residual-Control   Outer-Iter.   Inner-Iter.     Column Row Layer    Maximum-Head-Change  Column Row Layer    Maximum-Flux-Residual          L2-NORM 
          0                11           2             4    8     1       0.1291685649E-03       4    8    1         0.7423060465E-02      0.1033525539E-01
          0                12           1             4    8     1       0.6020485367E-04       4    8    1         0.3459903362E-02      0.4773903990E-02

    ------------------------------------------------
       NWT REQUIRED           12 OUTER ITERATIONS 
       AND A TOTAL OF         23 INNER ITERATIONS.
    ------------------------------------------------

 NO OUTPUT CONTROL FOR STRESS PERIOD   10   TIME STEP   24
 
 SOLVING FOR HEAD 
                                                   Max.-Head-Change                         Max.-Flux-Residual
  Residual-Control   Outer-Iter.   Inner-Iter.     Column Row Layer    Maximum-Head-Change  Column Row Layer    Maximum-Flux-Residual          L2-NORM 
          0                 1           2             4    8     1       0.1292389715E+00       4    8    1         0.6875993529E+01      0.1266641427E+02
          0                 2           2             4    8     1       0.5722414260E-01       4    8    1         0.3078730080E+01      0.4333332695E+01
          0                 3           2             4    6     1      -0.3353648946E-01       4    6    1        -0.1882770976E+01      0.3941919235E+01
          0                 4           2             4    6     1       0.3364594574E-01       4    6    1         0.1941420976E+01      0.4214493170E+01
          0                 5           2             4    8     1       0.1362114400E-01       4    8    1         0.7745857058E+00      0.9362008757E+00
          0                 6           2             4    8     1       0.6379929475E-02       4    8    1         0.3652690402E+00      0.3787463274E+00
          0                 7           2             4    8     1       0.2978544581E-02       4    8    1         0.1709819570E+00      0.1721456328E+00
          0                 8           2             4    8     1       0.1388774226E-02       4    8    1         0.7980476200E-01      0.7992573161E-01
          0                 9           2             4    8     1       0.6471938767E-03       4    8    1         0.3720553474E-01      0.3722345468E-01
          0                10           2             4    8     1       0.3015401689E-03       4    8    1         0.1733746360E-01      0.1734161651E-01
                                                   Max.-Head-Change                         Max.-Flux-Residual
  Residual-Control   Outer-Iter.   Inner-Iter.     Column Row Layer    Maximum-Head-Change  Column Row Layer    Maximum-Flux-Residual          L2-NORM 
          0                11           2             4    8     1       0.1404806750E-03       4    8    1         0.8077577299E-02      0.8078950771E-02
          0                12           1             4    8     1       0.6544394888E-04       4    8    1         0.3763059612E-02      0.3763611530E-02

    ------------------------------------------------
       NWT REQUIRED           12 OUTER ITERATIONS 
       AND A TOTAL OF         23 INNER ITERATIONS.
    ------------------------------------------------

 NO OUTPUT CONTROL FOR STRESS PERIOD   10   TIME STEP   25
 
 SOLVING FOR HEAD 
                                                   Max.-Head-Change                         Max.-Flux-Residual
  Residual-Control   Outer-Iter.   Inner-Iter.     Column Row Layer    Maximum-Head-Change  Column Row Layer    Maximum-Flux-Residual          L2-NORM 
          0                 1           2             4    7     1       0.1338072869E+00       4    7    1         0.7136036369E+01      0.1355216909E+02
          0                 2           2             4    8     1       0.5089204139E-01       4    8    1         0.2748286905E+01      0.3189010450E+01
          0                 3           2             4    6     1      -0.3353922531E-01       4    6    1        -0.1881429330E+01      0.4281118070E+01
          0                 4           2             4    6     1       0.3353820048E-01       4    6    1         0.1940620622E+01      0.4034531391E+01
          0                 5           2             4    8     1       0.5482879337E-02       4    8    1         0.3065236061E+00      0.6698566248E+00
          0                 6           2             4    8     1       0.1039910852E-02       4    8    1         0.5814960836E-01      0.1257556213E+00
          0                 7           2             4    8     1       0.1971762520E-03       4    8    1         0.1102786097E-01      0.2363927228E-01
          0                 8           1             4    8     1       0.3737596575E-04       4    8    1         0.2090780420E-02      0.4444920454E-02

    ------------------------------------------------
       NWT REQUIRED            8 OUTER ITERATIONS 
       AND A TOTAL OF         15 INNER ITERATIONS.
    ------------------------------------------------

 NO OUTPUT CONTROL FOR STRESS PERIOD   10   TIME STEP   26
 
 SOLVING FOR HEAD 
                                                   Max.-Head-Change                         Max.-Flux-Residual
  Residual-Control   Outer-Iter.   Inner-Iter.     Column Row Layer    Maximum-Head-Change  Column Row Layer    Maximum-Flux-Residual          L2-NORM 
          0                 1           2             5    6     1       0.1349203475E+00       5    6    1         0.7359332234E+01      0.1496813487E+02
          0                 2           2             4    7     1       0.1856898569E-01       5    6    1         0.1003505455E+01      0.2062944395E+01
          0                 3           2             4    6     1      -0.3348037937E-01       4    6    1        -0.1879107214E+01      0.4343244900E+01
          0                 4           2             4    6     1       0.3354181556E-01       4    6    1         0.1940638678E+01      0.4022702088E+01
          0                 5           2             4    7     1       0.5408516348E-02       4    7    1         0.3032094330E+00      0.6672155132E+00
          0                 6           2             4    7     1       0.1023995530E-02       4    7    1         0.5733810688E-01      0.1252342531E+00
          0                 7           2             4    7     1       0.1938752551E-03       4    7    1         0.1085382585E-01      0.2353700612E-01
          0                 8           1             4    7     1       0.3670640459E-04       4    7    1         0.2054830364E-02      0.4424947668E-02

    ------------------------------------------------
       NWT REQUIRED            8 OUTER ITERATIONS 
       AND A TOTAL OF         15 INNER ITERATIONS.
    ------------------------------------------------

 NO OUTPUT CONTROL FOR STRESS PERIOD   10   TIME STEP   27
 
 SOLVING FOR HEAD 
                                                   Max.-Head-Change                         Max.-Flux-Residual
  Residual-Control   Outer-Iter.   Inner-Iter.     Column Row Layer    Maximum-Head-Change  Column Row Layer    Maximum-Flux-Residual          L2-NORM 
          0                 1           2             5    6     1       0.1270700030E+00       5    6    1         0.6917725982E+01      0.1453124266E+02
          0                 2           2             5    6     1       0.3791283688E-01       5    6    1         0.2083644506E+01      0.2731306647E+01
          0                 3           2             4    6     1      -0.3317233615E-01       4    6    1        -0.1873814955E+01      0.4087893374E+01
          0                 4           2             4    6     1       0.3348172477E-01       4    6    1         0.1940771429E+01      0.3947289696E+01
          0                 5           2             5    6     1       0.1153188131E-01       5    6    1         0.6705012451E+00      0.8968022948E+00
          0                 6           2             5    6     1       0.5289706479E-02       5    6    1         0.3086473326E+00      0.3467885400E+00
          0                 7           2             5    6     1       0.2421628055E-02       5    6    1         0.1415175561E+00      0.1562030402E+00
          0                 8           2             5    6     1       0.1107765954E-02       5    6    1         0.6477597609E-01      0.7145065033E-01
          0                 9           2             5    6     1       0.5065893322E-03       5    6    1         0.2962929047E-01      0.3275126479E-01
          0                10           2             5    6     1       0.2316385084E-03       5    6    1         0.1354911069E-01      0.1501556030E-01
                                                   Max.-Head-Change                         Max.-Flux-Residual
  Residual-Control   Outer-Iter.   Inner-Iter.     Column Row Layer    Maximum-Head-Change  Column Row Layer    Maximum-Flux-Residual          L2-NORM 
          0                11           2             5    6     1       0.1059115175E-03       5    6    1         0.6195163511E-02      0.6884363138E-02
          0                12           1             5    6     1       0.4842454163E-04       5    6    1         0.2832531262E-02      0.3156455577E-02

    ------------------------------------------------
       NWT REQUIRED           12 OUTER ITERATIONS 
       AND A TOTAL OF         23 INNER ITERATIONS.
    ------------------------------------------------

 NO OUTPUT CONTROL FOR STRESS PERIOD   10   TIME STEP   28
 
 SOLVING FOR HEAD 
                                                   Max.-Head-Change                         Max.-Flux-Residual
  Residual-Control   Outer-Iter.   Inner-Iter.     Column Row Layer    Maximum-Head-Change  Column Row Layer    Maximum-Flux-Residual          L2-NORM 
          0                 1           2             4    7     1       0.1224877996E+00       4    7    1         0.6512701360E+01      0.1407865272E+02
          0                 2           2             4    7     1       0.5449089303E-01       4    7    1         0.2918344383E+01      0.5323388493E+01
          0                 3           2             4    6     1      -0.3277433563E-01       4    6    1        -0.1872190415E+01      0.2976972263E+01
          0                 4           2             4    6     1       0.3353831120E-01       4    6    1         0.1941402343E+01      0.3947214547E+01
          0                 5           2             4    7     1       0.1362692585E-01       4    7    1         0.7700318983E+00      0.1494394718E+01
          0                 6           2             4    7     1       0.6453662286E-02       4    7    1         0.3656240308E+00      0.6945853501E+00
          0                 7           2             5    7     1       0.3063255735E-02       4    7    1         0.1731025019E+00      0.3269690908E+00
          0                 8           2             5    7     1       0.1465693877E-02       5    7    1         0.8224255206E-01      0.1542049960E+00
          0                 9           2             5    7     1       0.7006798426E-03       5    7    1         0.3934738444E-01      0.7275256443E-01
          0                10           2             5    7     1       0.3346890969E-03       5    7    1         0.1880848476E-01      0.3433014389E-01
                                                   Max.-Head-Change                         Max.-Flux-Residual
  Residual-Control   Outer-Iter.   Inner-Iter.     Column Row Layer    Maximum-Head-Change  Column Row Layer    Maximum-Flux-Residual          L2-NORM 
          0                11           2             5    7     1       0.1597483320E-03       5    7    1         0.8983376318E-02      0.1620208123E-01
          0                12           1             5    7     1       0.7619543745E-04       5    7    1         0.4287462201E-02      0.7647678119E-02

    ------------------------------------------------
       NWT REQUIRED           12 OUTER ITERATIONS 
       AND A TOTAL OF         23 INNER ITERATIONS.
    ------------------------------------------------

 NO OUTPUT CONTROL FOR STRESS PERIOD   10   TIME STEP   29
 
 SOLVING FOR HEAD 
                                                   Max.-Head-Change                         Max.-Flux-Residual
  Residual-Control   Outer-Iter.   Inner-Iter.     Column Row Layer    Maximum-Head-Change  Column Row Layer    Maximum-Flux-Residual          L2-NORM 
          0                 1           2             4    7     1       0.1162873510E+00       4    7    1         0.6170290174E+01      0.1357145138E+02
          0                 2           2             4    7     1       0.5215194001E-01       4    7    1         0.2771866494E+01      0.5489285382E+01
          0                 3           2             4    6     1      -0.3276134855E-01       4    6    1        -0.1869253698E+01      0.2615499655E+01
          0                 4           2             4    6     1       0.3352019085E-01       4    6    1         0.1941292062E+01      0.3874585867E+01
          0                 5           2             4    7     1       0.1356915561E-01       4    7    1         0.7609729072E+00      0.1609470732E+01
          0                 6           2             4    7     1       0.6498589694E-02       4    7    1         0.3643115486E+00      0.7168107328E+00
          0                 7           2             4    7     1       0.3111763818E-02       4    7    1         0.1744682670E+00      0.3317974656E+00
          0                 8           2             4    7     1       0.1489776791E-02       4    7    1         0.8353988564E-01      0.1575663213E+00
          0                 9           2             4    7     1       0.7131297499E-03       4    7    1         0.3999418880E-01      0.7509779813E-01
          0                10           2             4    7     1       0.3413130363E-03       4    7    1         0.1914395328E-01      0.3581032459E-01
                                                   Max.-Head-Change                         Max.-Flux-Residual
  Residual-Control   Outer-Iter.   Inner-Iter.     Column Row Layer    Maximum-Head-Change  Column Row Layer    Maximum-Flux-Residual          L2-NORM 
          0                11           2             4    7     1       0.1633344061E-03       4    7    1         0.9162268938E-02      0.1707781876E-01
          0                12           1             4    7     1       0.7815307750E-04       4    7    1         0.4384448332E-02      0.8144806778E-02

    ------------------------------------------------
       NWT REQUIRED           12 OUTER ITERATIONS 
       AND A TOTAL OF         23 INNER ITERATIONS.
    ------------------------------------------------

 NO OUTPUT CONTROL FOR STRESS PERIOD   10   TIME STEP   30



 STREAM LISTING     PERIOD     10   STEP       30

 LAYER ROW COL. STREAM  RCH.  FLOW INTO     FLOW TO   FLOW OUT OF   OVRLND.     DIRECT     STREAM       STREAM     STREAM     STREAM   STREAMBED  STREAMBED
                SEG.NO.  NO.  STRM. RCH.    AQUIFER    STRM. RCH.    RUNOFF     PRECIP       ET          HEAD       DEPTH      WIDTH   CONDCTNC.   GRADIENT

   1    1    1     1     1    3.5250E+01  2.8720E-01   3.4963E+01  0.000E+00  0.000E+00  0.000E+00  1.09434E+03  1.294E+00  1.486E+01  6.688E-02  1.431E+00
   1    2    2     1     2    3.4963E+01  4.4467E-01   3.4518E+01  0.000E+00  0.000E+00  0.000E+00  1.08935E+03  1.291E+00  1.480E+01  1.036E-01  1.430E+00
   1    3    3     1     3    3.4518E+01  3.7912E-01   3.4139E+01  0.000E+00  0.000E+00  0.000E+00  1.08371E+03  1.288E+00  1.474E+01  8.841E-02  1.429E+00
   1    3    4     1     4    3.4139E+01  3.4902E-01   3.3790E+01  0.000E+00  0.000E+00  0.000E+00  1.07869E+03  1.285E+00  1.468E+01  8.145E-02  1.428E+00
   1    4    5     2     1    3.1790E+01  3.4244E-01   3.1447E+01  0.000E+00  0.000E+00  0.000E+00  1.07332E+03  1.390E+00  1.200E+01  7.800E-02  1.463E+00
   1    5    6     2     2    3.1447E+01  2.6294E-01   3.1184E+01  0.000E+00  0.000E+00  0.000E+00  1.06789E+03  1.382E+00  1.200E+01  6.000E-02  1.461E+00
   1    6    6     2     3    3.1184E+01  2.6252E-01   3.0922E+01  0.000E+00  0.000E+00  0.000E+00  1.06317E+03  1.375E+00  1.200E+01  6.000E-02  1.458E+00
   1    7    6     2     4    3.0922E+01  2.6210E-01   3.0660E+01  0.000E+00  0.000E+00  0.000E+00  1.05844E+03  1.368E+00  1.200E+01  6.000E-02  1.456E+00
   1    8    6     2     5    3.0660E+01  2.6168E-01   3.0398E+01  0.000E+00  0.000E+00  0.000E+00  1.05372E+03  1.361E+00  1.200E+01  6.000E-02  1.454E+00
   1    3    5     3     1    2.0000E+00  2.8252E-01   1.7175E+00  0.000E+00  0.000E+00  0.000E+00  1.07555E+03  1.909E+00  9.636E+00  7.227E-02  1.955E+00
   1    3    6     3     2    1.7175E+00  2.4905E-01   1.4684E+00  0.000E+00  0.000E+00  0.000E+00  1.07264E+03  1.727E+00  8.909E+00  6.682E-02  1.864E+00
   1    3    7     3     3    1.4684E+00  1.9718E-01   1.2712E+00  0.000E+00  0.000E+00  0.000E+00  1.06987E+03  1.555E+00  8.218E+00  5.547E-02  1.777E+00
   1    4    8     3     4    1.2712E+00  2.2567E-01   1.0456E+00  0.000E+00  0.000E+00  0.000E+00  1.06682E+03  1.364E+00  7.455E+00  6.709E-02  1.682E+00
   1    5    8     3     5    1.0456E+00  1.5790E-01   8.8768E-01  0.000E+00  0.000E+00  0.000E+00  1.06362E+03  1.164E+00  6.655E+00  4.991E-02  1.582E+00
   1    6    8     3     6    8.8768E-01  5.5980E-02   8.3170E-01  0.000E+00  0.000E+00  0.000E+00  1.06158E+03  1.036E+00  6.145E+00  1.844E-02  1.518E+00
   1    5   10     4     1    1.0000E+01  9.0919E-02   9.9091E+00  0.000E+00  0.000E+00  0.000E+00  1.07836E+03  6.368E-01  1.000E+01  2.500E-02  1.212E+00
   1    5    9     4     2    9.9091E+00  1.8158E-01   9.7275E+00  0.000E+00  0.000E+00  0.000E+00  1.07154E+03  6.315E-01  1.000E+01  5.000E-02  1.211E+00
   1    6    8     4     3    9.7275E+00  1.2689E-01   9.6006E+00  0.000E+00  0.000E+00  0.000E+00  1.06381E+03  6.256E-01  1.000E+01  3.500E-02  1.209E+00
   1    6    8     5     1    1.0432E+01  2.2686E-01   1.0205E+01  0.000E+00  0.000E+00  0.000E+00  1.05868E+03  6.790E-01  1.542E+01  6.166E-02  1.226E+00
   1    7    7     5     2    1.0205E+01  2.7894E-01   9.9265E+00  0.000E+00  0.000E+00  0.000E+00  1.05417E+03  6.732E-01  1.519E+01  7.594E-02  1.224E+00
   1    8    7     5     3    9.9265E+00  1.9221E-01   9.7343E+00  0.000E+00  0.000E+00  0.000E+00  1.04992E+03  6.676E-01  1.497E+01  5.241E-02  1.223E+00
   1    8    6     5     4    9.7343E+00  1.3577E-01   9.5985E+00  0.000E+00  0.000E+00  0.000E+00  1.04691E+03  6.637E-01  1.482E+01  3.706E-02  1.221E+00
   1    9    6     6     1    2.8804E+01  2.5954E-01   2.8544E+01  0.000E+00  0.000E+00  0.000E+00  1.04405E+03  1.326E+00  1.200E+01  6.000E-02  1.442E+00
   1   10    7     6     2    2.8544E+01  2.5911E-01   2.8285E+01  0.000E+00  0.000E+00  0.000E+00  1.03950E+03  1.319E+00  1.200E+01  6.000E-02  1.440E+00
   1   11    7     6     3    2.8285E+01  2.5868E-01   2.8026E+01  0.000E+00  0.000E+00  0.000E+00  1.03495E+03  1.311E+00  1.200E+01  6.000E-02  1.437E+00
   1   12    7     6     4    2.8026E+01  2.5825E-01   2.7768E+01  0.000E+00  0.000E+00  0.000E+00  1.03040E+03  1.304E+00  1.200E+01  6.000E-02  1.435E+00
   1   13    7     6     5    2.7768E+01  3.4909E-03   2.7765E+01  0.000E+00  0.000E+00  0.000E+00  1.02721E+03  1.300E+00  1.200E+01  2.400E-02  4.849E-02
   1   14    9     7     1    1.5000E+02  1.3369E+00   1.4866E+02  0.000E+00  0.000E+00  0.000E+00  1.03987E+03  2.288E+00  5.529E+01  5.593E-01  7.968E-01
   1   13    8     7     2    1.4866E+02  1.8349E+00   1.4683E+02  0.000E+00  0.000E+00  0.000E+00  1.03478E+03  2.279E+00  5.526E+01  6.148E-01  9.949E-01
   1   13    7     7     3    1.4683E+02  1.4664E+00   1.4536E+02  0.000E+00  0.000E+00  0.000E+00  1.02969E+03  2.270E+00  5.522E+01  5.585E-01  8.753E-01
   1   13    6     8     1    1.7313E+02  9.2915E-01   1.7220E+02  0.000E+00  0.000E+00  0.000E+00  1.02484E+03  2.969E+00  4.306E+01  4.388E-01  7.059E-01
   1   13    5     8     2    1.7220E+02  1.8057E-01   1.7202E+02  0.000E+00  0.000E+00  0.000E+00  1.01859E+03  2.966E+00  4.301E+01  4.382E-01  1.373E-01
   1   13    4     8     3    1.7202E+02 -2.4159E+00   1.7443E+02  0.000E+00  0.000E+00  0.000E+00  1.01235E+03  2.973E+00  4.311E+01  4.393E+00 -1.833E-01
   1   13    3     8     4    1.7443E+02 -3.6350E+00   1.7807E+02  0.000E+00  0.000E+00  0.000E+00  1.00612E+03  2.992E+00  4.339E+01  4.422E+00 -2.740E-01
   1   13    2     8     5    1.7807E+02 -2.5400E+00   1.8061E+02  0.000E+00  0.000E+00  0.000E+00  9.99887E+02  3.012E+00  4.367E+01  4.451E+00 -1.902E-01
   1   13    1     8     6    1.8061E+02 -1.9316E+00   1.8254E+02  0.000E+00  0.000E+00  0.000E+00  9.94901E+02  3.026E+00  4.388E+01  2.683E+00 -2.400E-01
   1    8    6     9     1    1.1193E+01  0.0000E+00   1.1193E+01  0.000E+00  0.000E+00  0.000E+00  1.08117E+03  2.425E+00  4.000E+00  0.000E+00  1.808E+00
   1    8    5     9     2    1.1193E+01  0.0000E+00   1.1193E+01  0.000E+00  0.000E+00  0.000E+00  1.08067E+03  2.425E+00  4.000E+00  0.000E+00  1.808E+00





UNSATURATED ZONE PACKAGE VOLUMETRIC BUDGET FOR  TIME STEP    30 STRESS PERIOD   10
  ------------------------------------------------------------------------------



     CUMULATIVE VOLUMES      L**3       RATES FOR THIS TIME STEP      L**3/T
     ------------------                 ------------------------

           IN:                                      IN:
           ---                                      ---
        INFILTRATION =  1592887630.2103          INFILTRATION =          12.0407

          OUT:                                     OUT:
          ----                                     ----
              UZF ET =   426098933.7238                UZF ET =          12.0675
        UZF RECHARGE =   824891994.1035          UZF RECHARGE =          68.2200

            IN - OUT =   341896702.3831              IN - OUT =         -68.2468

          STORAGE:                                 STORAGE:
          --------                                 --------
      STORAGE CHANGE =   341898807.8728        STORAGE CHANGE =         -68.2468

 PERCENT DISCREPANCY IS DIFFERENCE BETWEEN IN-OUT MINUS CHANGE IN STORAGE
 DIVIDED BY THE AVERAGE OF IN AND OUT TIMES 100

 PERCENT DISCREPANCY =          -0.00     PERCENT DISCREPANCY =           0.00






1
  VOLUMETRIC BUDGET FOR AGRICULTURAL FIELDS AT  END OF TIME STEP   30, STRESS PERIOD  10
  ------------------------------------------------------------------------------

     CUMULATIVE VOLUMES      L**3       RATES FOR THIS TIME STEP      L**3/T
     ------------------                 ------------------------

           IN:                                      IN:
           ---                                      ---
           AG WELLS      =  1024023808.0000             AG WELLS      =           0.0000
      DIVERSION SEGMENTS =   548718528.0000        DIVERSION SEGMENTS =          11.1930
           GW IRRIGATION =           0.0000             GW IRRIGATION =           0.0000
           SW IRRIGATION =           0.0000             SW IRRIGATION =           0.0000
        SYSTEM LOSSES GW =           0.0000          SYSTEM LOSSES GW =           0.0000
        SYSTEM LOSSES SW =           0.0000          SYSTEM LOSSES SW =           0.0000

                TOTAL IN =  1572742400.0000                  TOTAL IN =          11.1930

          OUT:                                     OUT:
          ----                                     ----
           AG WELLS      =           0.0000             AG WELLS      =           0.0000
      DIVERSION SEGMENTS =           0.0000        DIVERSION SEGMENTS =           0.0000
           GW IRRIGATION =  1024023808.0000             GW IRRIGATION =           0.0000
           SW IRRIGATION =   548729152.0000             SW IRRIGATION =          11.1932
        SYSTEM LOSSES GW =           0.0000          SYSTEM LOSSES GW =           0.0000
        SYSTEM LOSSES SW =           0.0000          SYSTEM LOSSES SW =           0.0000

               TOTAL OUT =  1572752896.0000                 TOTAL OUT =          11.1932

                IN - OUT =      -10496.0000                  IN - OUT =      -2.2316E-04

     PERCENT DISCREPANCY =          -0.00         PERCENT DISCREPANCY =          -0.00



1
  VOLUMETRIC BUDGET FOR ENTIRE MODEL AT END OF TIME STEP   30, STRESS PERIOD  10
  ------------------------------------------------------------------------------

     CUMULATIVE VOLUMES      L**3       RATES FOR THIS TIME STEP      L**3/T
     ------------------                 ------------------------

           IN:                                      IN:
           ---                                      ---
             STORAGE     =  1034229248.0000               STORAGE     =           4.4931
       CONSTANT HEAD     =           0.0000         CONSTANT HEAD     =           0.0000
     HEAD DEP BOUNDS     =     6788394.0000       HEAD DEP BOUNDS     =           0.2858
      STREAM LEAKAGE     =   287435136.0000        STREAM LEAKAGE     =          12.0401
        UZF RECHARGE     =   824891904.0000          UZF RECHARGE     =          68.2200
               GW ET     =           0.0000                 GW ET     =           0.0000
     SURFACE LEAKAGE     =           0.0000       SURFACE LEAKAGE     =           0.0000
           AG WELLS      =           0.0000             AG WELLS      =           0.0000

                TOTAL IN =  2153344768.0000                  TOTAL IN =          85.0390

          OUT:                                     OUT:
          ----                                     ----
             STORAGE     =   864139392.0000               STORAGE     =          74.2192
       CONSTANT HEAD     =           0.0000         CONSTANT HEAD     =           0.0000
     HEAD DEP BOUNDS     =     6881236.0000       HEAD DEP BOUNDS     =           0.2896
      STREAM LEAKAGE     =   258243184.0000        STREAM LEAKAGE     =          10.5225
        UZF RECHARGE     =           0.0000          UZF RECHARGE     =           0.0000
               GW ET     =       56916.5898                 GW ET     =           0.0000
     SURFACE LEAKAGE     =           0.0000       SURFACE LEAKAGE     =           0.0000
           AG WELLS      =  1024023808.0000             AG WELLS      =           0.0000

               TOTAL OUT =  2153344512.0000                 TOTAL OUT =          85.0312

                IN - OUT =         256.0000                  IN - OUT =       7.7972E-03

     PERCENT DISCREPANCY =           0.00         PERCENT DISCREPANCY =           0.01






         TIME SUMMARY AT END OF TIME STEP   30 IN STRESS PERIOD   10
                    SECONDS     MINUTES      HOURS       DAYS        YEARS
                    -----------------------------------------------------------
   TIME STEP LENGTH  87667.      1461.1      24.352      1.0147     2.77799E-03
 STRESS PERIOD TIME 2.63000E+06  43833.      730.56      30.440     8.33397E-02
         TOTAL TIME 2.37564E+07 3.95940E+05  6599.0      274.96     0.75279    
1
1
                            STRESS PERIOD NO.   11, LENGTH =   2630000.    
                            -----------------------------------------------

                              NUMBER OF TIME STEPS =    30

                               MULTIPLIER FOR DELT =     1.000

                            INITIAL TIME STEP SIZE =   87666.66    

 REUSING NON-PARAMETER GHB CELLS FROM LAST STRESS PERIOD

      2 GHB CELLS

 REUSING STREAM SEGMENT DATA FROM LAST STRESS PERIOD



            AREAL INFILTRATION RATE
 READING ON UNIT   19 WITH FORMAT: (FREE)              

            1           2           3           4           5           6           7           8           9          10
 ........................................................................................................................
   1   1.0000E-10  2.0000E-10   0.000       0.000       0.000       0.000       0.000       0.000       0.000       0.000    
   2   2.0000E-10  1.0000E-10  2.0000E-10   0.000       0.000      8.0000E-10  8.0000E-10  5.0000E-10   0.000       0.000    
   3    0.000      5.0000E-10  1.0000E-10  1.0000E-10  8.0000E-10  8.0000E-10  5.0000E-10  5.0000E-10   0.000       0.000    
   4   8.0000E-10  5.0000E-10  1.0000E-10  1.0000E-10  1.0000E-10  1.0000E-10  1.0000E-10  1.0000E-10  2.0000E-10   0.000    
   5   8.0000E-10  5.0000E-10  1.0000E-10  1.0000E-10  1.0000E-10  1.0000E-10  1.0000E-10  1.0000E-10  1.0000E-10  1.0000E-10
   6   8.0000E-10  5.0000E-10  5.0000E-10  2.0000E-10  2.0000E-10  1.0000E-10  1.0000E-10  1.0000E-10  1.0000E-10  5.0000E-10
   7   8.0000E-10  5.0000E-10  5.0000E-10  2.0000E-10  2.0000E-10  1.0000E-10  1.0000E-10  2.0000E-10  2.0000E-10   0.000    
   8    0.000      5.0000E-10  5.0000E-10  2.0000E-10  2.0000E-10  1.0000E-10  1.0000E-10  2.0000E-10  5.0000E-10   0.000    
   9    0.000      5.0000E-10  5.0000E-10  2.0000E-10  2.0000E-10  1.0000E-10  1.0000E-10  2.0000E-10  5.0000E-10   0.000    
  10    0.000      5.0000E-10  5.0000E-10  2.0000E-10  2.0000E-10  1.0000E-10  1.0000E-10  2.0000E-10  5.0000E-10  8.0000E-10
  11    0.000      1.0000E-10  1.0000E-10  1.0000E-10  1.0000E-10  1.0000E-10  1.0000E-10  2.0000E-10  5.0000E-10   0.000    
  12   1.0000E-10  1.0000E-10  1.0000E-10  1.0000E-10  1.0000E-10  1.0000E-10  1.0000E-10  1.0000E-10  2.0000E-10   0.000    
  13   1.0000E-10  1.0000E-10  2.0000E-10  2.0000E-10  2.0000E-10  2.0000E-10  2.0000E-10  1.0000E-10  1.0000E-10   0.000    
  14    0.000      2.0000E-10  5.0000E-10  5.0000E-10  5.0000E-10  5.0000E-10  5.0000E-10  2.0000E-10  1.0000E-10   0.000    
  15    0.000       0.000      8.0000E-10  8.0000E-10  8.0000E-10  8.0000E-10   0.000       0.000       0.000       0.000    

                  ET RATE =  5.000000E-09

 USING ET EXTINCTION DEPTH FROM PREVIOUS STRESS PERIOD. CURRENT PERIOD IS:      11

 USING EXTINCTION WATER CONTENT FROM PREVIOUS STRESS PERIOD. CURRENT PERIOD IS:      11

 USING AIR ENTRY PRESSURE FROM PREVIOUS STRESS PERIOD. CURRENT PERIOD IS:      11

 USING ROOT PRESSURE HEAD FROM PREVIOUS STRESS PERIOD. CURRENT PERIOD IS:      11

 USING ROOT ACTIVITY FROM PREVIOUS STRESS PERIOD. CURRENT PERIOD IS:      11

 PROCESSING AG STRESS PERIOD DATA

 READING AG STRESS PERIOD DATA

 READING IRRIGATION SEGMENT

 READING IRRIGATION WELL

 READING SUPPLEMENTAL WELL

 END PROCESSING AG STRESS PERIOD DATA OPTIONS
 
 SOLVING FOR HEAD 
                                                   Max.-Head-Change                         Max.-Flux-Residual
  Residual-Control   Outer-Iter.   Inner-Iter.     Column Row Layer    Maximum-Head-Change  Column Row Layer    Maximum-Flux-Residual          L2-NORM 
          0                 1           2             4    7     1       0.1117729923E+00       4    7    1         0.5905859017E+01      0.1312355067E+02
          0                 2           2             4    8     1       0.4887693513E-01       4    8    1         0.2605748801E+01      0.4665282548E+01
          0                 3           2             4    8     1       0.2169797894E-01       4    8    1         0.1163908158E+01      0.1553110122E+01
          0                 4           2             4    8     1       0.9592489740E-02       4    8    1         0.5159187331E+00      0.6487796109E+00
          0                 5           2             4    8     1       0.4234906794E-02       4    8    1         0.2279533397E+00      0.2842266785E+00
          0                 6           2             4    8     1       0.1868702169E-02       4    8    1         0.1006185374E+00      0.1250762095E+00
          0                 7           2             4    8     1       0.8244110075E-03       4    8    1         0.4439598670E-01      0.5505599824E-01
          0                 8           2             4    8     1       0.3636600294E-03       4    8    1         0.1958544331E-01      0.2423428807E-01
          0                 9           2             4    8     1       0.1604018723E-03       4    8    1         0.8639261786E-02      0.1066732407E-01
          0                10           1             4    8     1       0.7074418948E-04       4    8    1         0.3810516569E-02      0.4695540193E-02

    ------------------------------------------------
       NWT REQUIRED           10 OUTER ITERATIONS 
       AND A TOTAL OF         19 INNER ITERATIONS.
    ------------------------------------------------

 NO OUTPUT CONTROL FOR STRESS PERIOD   11   TIME STEP    1
 
 SOLVING FOR HEAD 
                                                   Max.-Head-Change                         Max.-Flux-Residual
  Residual-Control   Outer-Iter.   Inner-Iter.     Column Row Layer    Maximum-Head-Change  Column Row Layer    Maximum-Flux-Residual          L2-NORM 
          0                 1           2             4    6     1       0.1506713327E+00       4    6    1         0.8037216393E+01      0.1512270565E+02
          0                 2           2             4    6     1       0.6610169817E-01       4    6    1         0.3587184437E+01      0.4927043736E+01
          0                 3           2             4    6     1       0.2878631896E-01       4    6    1         0.1567693795E+01      0.1899549195E+01
          0                 4           2             4    6     1       0.1250567442E-01       4    6    1         0.6821072576E+00      0.6986556731E+00
          0                 5           2             4    6     1       0.5428283136E-02       4    6    1         0.2962279796E+00      0.2970623993E+00
          0                 6           2             4    6     1       0.2355534309E-02       4    6    1         0.1285674753E+00      0.1286284950E+00
          0                 7           2             4    6     1       0.1022048726E-02       4    6    1         0.5578793528E-01      0.5579883712E-01
          0                 8           2             4    6     1       0.4434434658E-03       4    6    1         0.2420562517E-01      0.2420935205E-01
          0                 9           2             4    6     1       0.1923975674E-03       4    6    1         0.1050221347E-01      0.1050374053E-01
          0                10           1             4    6     1       0.8347550638E-04       4    6    1         0.4556605535E-02      0.4557257430E-02

    ------------------------------------------------
       NWT REQUIRED           10 OUTER ITERATIONS 
       AND A TOTAL OF         19 INNER ITERATIONS.
    ------------------------------------------------

 NO OUTPUT CONTROL FOR STRESS PERIOD   11   TIME STEP    2
 
 SOLVING FOR HEAD 
                                                   Max.-Head-Change                         Max.-Flux-Residual
  Residual-Control   Outer-Iter.   Inner-Iter.     Column Row Layer    Maximum-Head-Change  Column Row Layer    Maximum-Flux-Residual          L2-NORM 
          0                 1           2             4    6     1       0.1408813033E+00       4    6    1         0.7498061604E+01      0.1481351657E+02
          0                 2           2             4    6     1       0.5028217598E-01       4    6    1         0.2724039164E+01      0.3245934929E+01
          0                 3           2             4    6     1       0.6955437319E-02       4    6    1         0.3759216077E+00      0.4505476959E+00
          0                 4           2             4    6     1       0.9635573179E-03       4    6    1         0.5206490980E-01      0.6341746222E-01
          0                 5           2             4    6     1       0.1336744968E-03       4    6    1         0.7215823681E-02      0.8960334953E-02
          0                 6           1             4    6     1       0.1857027326E-04       4    6    1         0.1001693198E-02      0.1268888659E-02

    ------------------------------------------------
       NWT REQUIRED            6 OUTER ITERATIONS 
       AND A TOTAL OF         11 INNER ITERATIONS.
    ------------------------------------------------

 NO OUTPUT CONTROL FOR STRESS PERIOD   11   TIME STEP    3
 
 SOLVING FOR HEAD 
                                                   Max.-Head-Change                         Max.-Flux-Residual
  Residual-Control   Outer-Iter.   Inner-Iter.     Column Row Layer    Maximum-Head-Change  Column Row Layer    Maximum-Flux-Residual          L2-NORM 
          0                 1           2             4    6     1       0.1347358732E+00       4    6    1         0.7161394843E+01      0.1458986075E+02
          0                 2           2             4    6     1       0.1908560074E-01       4    6    1         0.1020926083E+01      0.2026615974E+01
          0                 3           2             4    6     1       0.2705553603E-02       4    6    1         0.1440506865E+00      0.2797663304E+00
          0                 4           2             4    6     1       0.3838009815E-03       4    6    1         0.2046248966E-01      0.3981697705E-01
          0                 5           1             4    6     1       0.5448007085E-04       4    6    1         0.2902104281E-02      0.5702611122E-02

    ------------------------------------------------
       NWT REQUIRED            5 OUTER ITERATIONS 
       AND A TOTAL OF          9 INNER ITERATIONS.
    ------------------------------------------------

 NO OUTPUT CONTROL FOR STRESS PERIOD   11   TIME STEP    4
 
 SOLVING FOR HEAD 
                                                   Max.-Head-Change                         Max.-Flux-Residual
  Residual-Control   Outer-Iter.   Inner-Iter.     Column Row Layer    Maximum-Head-Change  Column Row Layer    Maximum-Flux-Residual          L2-NORM 
          0                 1           2             4    6     1       0.1308213569E+00       4    6    1         0.6948218536E+01      0.1440392688E+02
          0                 2           2             4    7     1       0.4544452174E-01       4    7    1         0.2443048389E+01      0.3404433083E+01
          0                 3           2             4    7     1       0.1996824841E-01       4    7    1         0.1080098316E+01      0.1361099470E+01
          0                 4           2             4    7     1       0.8745355404E-02       4    7    1         0.4739100075E+00      0.5913888534E+00
          0                 5           2             4    7     1       0.3827320265E-02       4    7    1         0.2074712903E+00      0.2586494432E+00
          0                 6           2             4    7     1       0.1675014230E-02       4    7    1         0.9079090594E-01      0.1132404642E+00
          0                 7           2             4    7     1       0.7332411243E-03       4    7    1         0.3973519241E-01      0.4960906558E-01
          0                 8           2             4    7     1       0.3210750076E-03       4    7    1         0.1739504344E-01      0.2174603538E-01
          0                 9           1             4    7     1       0.1406377591E-03       4    7    1         0.7617461317E-02      0.9537739601E-02
          0                10           1             4    7     1       0.6162127037E-04       4    7    1         0.3336806240E-02      0.4185419345E-02

    ------------------------------------------------
       NWT REQUIRED           10 OUTER ITERATIONS 
       AND A TOTAL OF         18 INNER ITERATIONS.
    ------------------------------------------------

 NO OUTPUT CONTROL FOR STRESS PERIOD   11   TIME STEP    5
 
 SOLVING FOR HEAD 
                                                   Max.-Head-Change                         Max.-Flux-Residual
  Residual-Control   Outer-Iter.   Inner-Iter.     Column Row Layer    Maximum-Head-Change  Column Row Layer    Maximum-Flux-Residual          L2-NORM 
          0                 1           2             4    6     1       0.1285939660E+00       4    6    1         0.6831773381E+01      0.1442460331E+02
          0                 2           2             4    7     1       0.4887136542E-01       4    7    1         0.2600999942E+01      0.4444057961E+01
          0                 3           2             4    7     1       0.2183219837E-01       4    7    1         0.1164173452E+01      0.1933448300E+01
          0                 4           2             4    7     1       0.9741274256E-02       4    7    1         0.5198232283E+00      0.8612125602E+00
          0                 5           2             4    7     1       0.4345364547E-02       4    7    1         0.2319037439E+00      0.3840718789E+00
          0                 6           2             4    7     1       0.1938443227E-02       4    7    1         0.1034448403E+00      0.1713267383E+00
          0                 7           2             4    7     1       0.8648306156E-03       4    7    1         0.4614681111E-01      0.7643889043E-01
          0                 8           2             4    7     1       0.3858935152E-03       4    7    1         0.2058874377E-01      0.3410960734E-01
          0                 9           2             4    7     1       0.1722112577E-03       4    7    1         0.9187072152E-02      0.1522324967E-01
          0                10           1             4    7     1       0.7686171827E-04       4    7    1         0.4099979485E-02      0.6795183495E-02

    ------------------------------------------------
       NWT REQUIRED           10 OUTER ITERATIONS 
       AND A TOTAL OF         19 INNER ITERATIONS.
    ------------------------------------------------

 NO OUTPUT CONTROL FOR STRESS PERIOD   11   TIME STEP    6
 
 SOLVING FOR HEAD 
                                                   Max.-Head-Change                         Max.-Flux-Residual
  Residual-Control   Outer-Iter.   Inner-Iter.     Column Row Layer    Maximum-Head-Change  Column Row Layer    Maximum-Flux-Residual          L2-NORM 
          0                 1           2             4    6     1       0.1250738684E+00       4    6    1         0.6643200997E+01      0.1391508587E+02
          0                 2           2             4    6     1       0.5578261074E-01       4    6    1         0.2980635507E+01      0.5300525951E+01
          0                 3           2             4    6     1       0.2481379373E-01       4    6    1         0.1327664921E+01      0.2228407607E+01
          0                 4           2             4    6     1       0.1096445320E-01       4    6    1         0.5903384654E+00      0.9210912432E+00
          0                 5           2             4    6     1       0.4829742197E-02       4    6    1         0.2604908899E+00      0.4031189482E+00
          0                 6           2             4    6     1       0.2125681933E-02       4    6    1         0.1146985169E+00      0.1773313249E+00
          0                 7           2             4    6     1       0.9354337847E-03       4    6    1         0.5047647622E-01      0.7803381250E-01
          0                 8           2             4    6     1       0.4116791962E-03       4    6    1         0.2221263745E-01      0.3434010200E-01
          0                 9           2             4    6     1       0.1812011927E-03       4    6    1         0.9775836614E-02      0.1511304261E-01
          0                10           1             4    6     1       0.7976732654E-04       4    6    1         0.4302957539E-02      0.6651798762E-02

    ------------------------------------------------
       NWT REQUIRED           10 OUTER ITERATIONS 
       AND A TOTAL OF         19 INNER ITERATIONS.
    ------------------------------------------------

 NO OUTPUT CONTROL FOR STRESS PERIOD   11   TIME STEP    7
 
 SOLVING FOR HEAD 
                                                   Max.-Head-Change                         Max.-Flux-Residual
  Residual-Control   Outer-Iter.   Inner-Iter.     Column Row Layer    Maximum-Head-Change  Column Row Layer    Maximum-Flux-Residual          L2-NORM 
          0                 1           2             4    6     1       0.1189727427E+00       4    6    1         0.6310487822E+01      0.1339559473E+02
          0                 2           2             4    6     1       0.5265767092E-01       4    6    1         0.2836109536E+01      0.4600296448E+01
          0                 3           2             4    6     1       0.2304369445E-01       4    6    1         0.1251057829E+01      0.1802230120E+01
          0                 4           2             4    6     1       0.9794050731E-02       4    6    1         0.5334961767E+00      0.7649539872E+00
          0                 5           2             4    8     1       0.3225313017E-02       4    8    1         0.1749605086E+00      0.2478034356E+00
          0                 6           2             4    8     1       0.1409757109E-02       4    8    1         0.7649435224E-01      0.1029615964E+00
          0                 7           2             4    8     1       0.6160771883E-03       4    8    1         0.3343298994E-01      0.4437352023E-01
          0                 8           2             4    8     1       0.2692087420E-03       4    8    1         0.1461011704E-01      0.1919976156E-01
          0                 9           2             4    8     1       0.1176320171E-03       4    8    1         0.6384138230E-02      0.8312246058E-02
          0                10           1             4    8     1       0.5139867528E-04       4    8    1         0.2789561945E-02      0.3599585068E-02

    ------------------------------------------------
       NWT REQUIRED           10 OUTER ITERATIONS 
       AND A TOTAL OF         19 INNER ITERATIONS.
    ------------------------------------------------

 NO OUTPUT CONTROL FOR STRESS PERIOD   11   TIME STEP    8
 
 SOLVING FOR HEAD 
                                                   Max.-Head-Change                         Max.-Flux-Residual
  Residual-Control   Outer-Iter.   Inner-Iter.     Column Row Layer    Maximum-Head-Change  Column Row Layer    Maximum-Flux-Residual          L2-NORM 
          0                 1           2             4    6     1       0.1127543917E+00       4    6    1         0.5968955851E+01      0.1295713112E+02
          0                 2           2             4    8     1       0.3608583926E-01       4    8    1         0.1947940809E+01      0.2594233753E+01
          0                 3           2             4    8     1       0.1581108900E-01       4    8    1         0.8568233610E+00      0.8871801652E+00
          0                 4           2             4    8     1       0.6912006780E-02       4    8    1         0.3750734354E+00      0.3765915284E+00
          0                 5           2             4    8     1       0.3019429185E-02       4    8    1         0.1639161279E+00      0.1640149358E+00
          0                 6           2             4    8     1       0.1318682121E-02       4    8    1         0.7159798628E-01      0.7160964332E-01
          0                 7           2             4    8     1       0.5758652134E-03       4    8    1         0.3126813697E-01      0.3127097965E-01
          0                 8           2             4    8     1       0.2514723605E-03       4    8    1         0.1365457485E-01      0.1365559837E-01
          0                 9           1             4    8     1       0.1098135598E-03       4    8    1         0.5962743252E-02      0.5963163856E-02
          0                10           1             4    8     1       0.4795351797E-04       4    8    1         0.2603822289E-02      0.2604002417E-02

    ------------------------------------------------
       NWT REQUIRED           10 OUTER ITERATIONS 
       AND A TOTAL OF         18 INNER ITERATIONS.
    ------------------------------------------------

 NO OUTPUT CONTROL FOR STRESS PERIOD   11   TIME STEP    9
 
 SOLVING FOR HEAD 
                                                   Max.-Head-Change                         Max.-Flux-Residual
  Residual-Control   Outer-Iter.   Inner-Iter.     Column Row Layer    Maximum-Head-Change  Column Row Layer    Maximum-Flux-Residual          L2-NORM 
          0                 1           2             4    6     1       0.1099483861E+00       4    6    1         0.5817883118E+01      0.1236152928E+02
          0                 2           2             4    6     1       0.1560770915E-01       4    6    1         0.8357227411E+00      0.1616038930E+01
          0                 3           2             4    6     1       0.2215032008E-02       4    6    1         0.1177672604E+00      0.2107464080E+00
          0                 4           2             4    6     1       0.3142859502E-03       4    6    1         0.1676241640E-01      0.2902391499E-01
          0                 5           1             4    6     1       0.4458500318E-04       4    6    1         0.2376263864E-02      0.4077170956E-02

    ------------------------------------------------
       NWT REQUIRED            5 OUTER ITERATIONS 
       AND A TOTAL OF          9 INNER ITERATIONS.
    ------------------------------------------------

 NO OUTPUT CONTROL FOR STRESS PERIOD   11   TIME STEP   10
 
 SOLVING FOR HEAD 
                                                   Max.-Head-Change                         Max.-Flux-Residual
  Residual-Control   Outer-Iter.   Inner-Iter.     Column Row Layer    Maximum-Head-Change  Column Row Layer    Maximum-Flux-Residual          L2-NORM 
          0                 1           2             4    6     1       0.1071424304E+00       4    6    1         0.5671835453E+01      0.1253180977E+02
          0                 2           2             4    7     1       0.1608454445E-01       4    7    1         0.8556600982E+00      0.1564953679E+01
          0                 3           2             4    7     1       0.7040113964E-02       4    7    1         0.3828780259E+00      0.4116265647E+00
          0                 4           2             4    7     1       0.3066068232E-02       4    7    1         0.1669078046E+00      0.1681677703E+00
          0                 5           1             4    7     1       0.1333203724E-02       4    7    1         0.7265287766E-01      0.7272923082E-01
          0                 6           1             4    7     1       0.5794184795E-03       4    7    1         0.3158462117E-01      0.3159240840E-01
          0                 7           1             4    7     1       0.2517783513E-03       4    7    1         0.1372595354E-01      0.1372751911E-01
          0                 8           1             4    7     1       0.1094012223E-03       4    7    1         0.5964298324E-02      0.5964801730E-02
          0                 9           1             4    7     1       0.4753558766E-04       4    7    1         0.2591553704E-02      0.2591751236E-02

    ------------------------------------------------
       NWT REQUIRED            9 OUTER ITERATIONS 
       AND A TOTAL OF         13 INNER ITERATIONS.
    ------------------------------------------------

 NO OUTPUT CONTROL FOR STRESS PERIOD   11   TIME STEP   11
 
 SOLVING FOR HEAD 
                                                   Max.-Head-Change                         Max.-Flux-Residual
  Residual-Control   Outer-Iter.   Inner-Iter.     Column Row Layer    Maximum-Head-Change  Column Row Layer    Maximum-Flux-Residual          L2-NORM 
          0                 1           2             4    6     1       0.1044710137E+00       4    6    1         0.5538908135E+01      0.1172265674E+02
          0                 2           2             4    6     1       0.1515524633E-01       4    6    1         0.8144351446E+00      0.1424225477E+01
          0                 3           2             4    6     1       0.6654952420E-02       4    6    1         0.3603409650E+00      0.3823958163E+00
          0                 4           2             4    6     1       0.2901439117E-02       4    6    1         0.1578863966E+00      0.1588098844E+00
          0                 5           2             4    6     1       0.1262190298E-02       4    6    1         0.6876537711E-01      0.6883262046E-01
          0                 6           2             4    6     1       0.5487065286E-03       4    6    1         0.2990601215E-01      0.2991512674E-01
          0                 7           2             4    6     1       0.2384864098E-03       4    6    1         0.1299973324E-01      0.1300199684E-01
          0                 8           1             4    6     1       0.1036474620E-03       4    6    1         0.5649966551E-02      0.5650763501E-02
          0                 9           1             4    6     1       0.4504482207E-04       4    6    1         0.2455484286E-02      0.2455807110E-02

    ------------------------------------------------
       NWT REQUIRED            9 OUTER ITERATIONS 
       AND A TOTAL OF         16 INNER ITERATIONS.
    ------------------------------------------------

 NO OUTPUT CONTROL FOR STRESS PERIOD   11   TIME STEP   12
 
 SOLVING FOR HEAD 
                                                   Max.-Head-Change                         Max.-Flux-Residual
  Residual-Control   Outer-Iter.   Inner-Iter.     Column Row Layer    Maximum-Head-Change  Column Row Layer    Maximum-Flux-Residual          L2-NORM 
          0                 1           2             4    6     1       0.9902830325E-01       4    6    1         0.5357752285E+01      0.1100426553E+02
          0                 2           2             4    6     1       0.4323624540E-01       4    6    1         0.2350183226E+01      0.2558513461E+01
          0                 3           2             4    6     1       0.1881476191E-01       4    6    1         0.1024949278E+01      0.1029524369E+01
          0                 4           2             4    6     1       0.8178707468E-02       4    6    1         0.4457893157E+00      0.4460007226E+00
          0                 5           2             4    6     1       0.3554091758E-02       4    6    1         0.1937539382E+00      0.1937827403E+00
          0                 6           2             4    6     1       0.1544291140E-02       4    6    1         0.8419323526E-01      0.8420066266E-01
          0                 7           2             4    6     1       0.6709906128E-03       4    6    1         0.3658239264E-01      0.3658506660E-01
          0                 8           2             4    6     1       0.2915410057E-03       4    6    1         0.1589489686E-01      0.1589598982E-01
          0                 9           2             4    6     1       0.1266722862E-03       4    6    1         0.6906220169E-02      0.6906686097E-02
          0                10           1             4    6     1       0.5503806959E-04       4    6    1         0.3000697644E-02      0.3000898919E-02

    ------------------------------------------------
       NWT REQUIRED           10 OUTER ITERATIONS 
       AND A TOTAL OF         19 INNER ITERATIONS.
    ------------------------------------------------

 NO OUTPUT CONTROL FOR STRESS PERIOD   11   TIME STEP   13
 
 SOLVING FOR HEAD 
                                                   Max.-Head-Change                         Max.-Flux-Residual
  Residual-Control   Outer-Iter.   Inner-Iter.     Column Row Layer    Maximum-Head-Change  Column Row Layer    Maximum-Flux-Residual          L2-NORM 
          0                 1           2             4    6     1       0.8885431704E-01       4    6    1         0.4917752249E+01      0.1099628717E+02
          0                 2           2             4    6     1       0.3858752399E-01       4    6    1         0.2097616623E+01      0.2309509741E+01
          0                 3           2             4    6     1       0.1676196181E-01       4    6    1         0.9145335710E+00      0.9169979125E+00
          0                 4           2             4    6     1       0.7281195599E-02       4    6    1         0.3970246140E+00      0.3970391133E+00
          0                 5           2             4    6     1       0.3162864980E-02       4    6    1         0.1724668025E+00      0.1724684675E+00
          0                 6           2             4    6     1       0.1373911134E-02       4    6    1         0.7491771081E-01      0.7491844120E-01
          0                 7           2             4    6     1       0.5968107662E-03       4    6    1         0.3254337115E-01      0.3254371077E-01
          0                 8           2             4    6     1       0.2592475510E-03       4    6    1         0.1413645876E-01      0.1413659456E-01
          0                 9           2             4    6     1       0.1126140757E-03       4    6    1         0.6140711272E-02      0.6140770227E-02
          0                10           1             4    6     1       0.4891822577E-04       4    6    1         0.2667452622E-02      0.2667478271E-02

    ------------------------------------------------
       NWT REQUIRED           10 OUTER ITERATIONS 
       AND A TOTAL OF         19 INNER ITERATIONS.
    ------------------------------------------------

 NO OUTPUT CONTROL FOR STRESS PERIOD   11   TIME STEP   14
 
 SOLVING FOR HEAD 
                                                   Max.-Head-Change                         Max.-Flux-Residual
  Residual-Control   Outer-Iter.   Inner-Iter.     Column Row Layer    Maximum-Head-Change  Column Row Layer    Maximum-Flux-Residual          L2-NORM 
          0                 1           2             4    6     1       0.7954277285E-01       4    6    1         0.4400431806E+01      0.1036613733E+02
          0                 2           2             4    6     1       0.3455075812E-01       4    6    1         0.1877998779E+01      0.2099466160E+01
          0                 3           2             4    6     1       0.1500782318E-01       4    6    1         0.8188727089E+00      0.8214720576E+00
          0                 4           2             4    6     1       0.6518951399E-02       4    6    1         0.3554726620E+00      0.3554872913E+00
          0                 5           2             4    6     1       0.2831638939E-02       4    6    1         0.1544106057E+00      0.1544121012E+00
          0                 6           2             4    6     1       0.1229979974E-02       4    6    1         0.6707155544E-01      0.6707219925E-01
          0                 7           2             4    6     1       0.5342668392E-03       4    6    1         0.2913389562E-01      0.2913417596E-01
          0                 8           2             4    6     1       0.2320696804E-03       4    6    1         0.1265490294E-01      0.1265502463E-01
          0                 9           1             4    6     1       0.1008041914E-03       4    6    1         0.5496915171E-02      0.5496968149E-02
          0                10           1             4    6     1       0.4378635384E-04       4    6    1         0.2387697157E-02      0.2387720252E-02

    ------------------------------------------------
       NWT REQUIRED           10 OUTER ITERATIONS 
       AND A TOTAL OF         18 INNER ITERATIONS.
    ------------------------------------------------

 NO OUTPUT CONTROL FOR STRESS PERIOD   11   TIME STEP   15
 
 SOLVING FOR HEAD 
                                                   Max.-Head-Change                         Max.-Flux-Residual
  Residual-Control   Outer-Iter.   Inner-Iter.     Column Row Layer    Maximum-Head-Change  Column Row Layer    Maximum-Flux-Residual          L2-NORM 
          0                 1           2             4    6     1       0.7125567956E-01       5    6    1        -0.3997141876E+01      0.9788046291E+01
          0                 2           2             4    6     1       0.1278646259E-01       4    6    1         0.6919874924E+00      0.1132102673E+01
          0                 3           2             4    6     1       0.1744071924E-02       4    6    1         0.9547891466E-01      0.1141612322E+00
          0                 4           2             4    6     1       0.2378926166E-03       4    6    1         0.1295565398E-01      0.1321391223E-01
          0                 5           1             4    6     1       0.3244875447E-04       4    6    1         0.1769168655E-02      0.1769544630E-02

    ------------------------------------------------
       NWT REQUIRED            5 OUTER ITERATIONS 
       AND A TOTAL OF          9 INNER ITERATIONS.
    ------------------------------------------------

 NO OUTPUT CONTROL FOR STRESS PERIOD   11   TIME STEP   16
 
 SOLVING FOR HEAD 
                                                   Max.-Head-Change                         Max.-Flux-Residual
  Residual-Control   Outer-Iter.   Inner-Iter.     Column Row Layer    Maximum-Head-Change  Column Row Layer    Maximum-Flux-Residual          L2-NORM 
          0                 1           2             4    6     1      -0.8653389897E-01       4    6    1        -0.4672298263E+01      0.9773989117E+01
          0                 2           2             4    6     1       0.7768507820E-02       4    6    1         0.4308422922E+00      0.9605015863E+00
          0                 3           2             4    6     1      -0.5290114679E-03       4    6    1        -0.3015929629E-01      0.6723435168E-01
          0                 4           1             4    6     1       0.2104984065E-04       4    6    1         0.1233515447E-02      0.2749882793E-02

    ------------------------------------------------
       NWT REQUIRED            4 OUTER ITERATIONS 
       AND A TOTAL OF          7 INNER ITERATIONS.
    ------------------------------------------------

 NO OUTPUT CONTROL FOR STRESS PERIOD   11   TIME STEP   17
 
 SOLVING FOR HEAD 
                                                   Max.-Head-Change                         Max.-Flux-Residual
  Residual-Control   Outer-Iter.   Inner-Iter.     Column Row Layer    Maximum-Head-Change  Column Row Layer    Maximum-Flux-Residual          L2-NORM 
          0                 1           2             4    6     1      -0.8394705139E-01       4    6    1        -0.4531027545E+01      0.9448477997E+01
          0                 2           2             4    6     1       0.8165201688E-02       4    6    1         0.4530645683E+00      0.9448126854E+00
          0                 3           2             4    6     1      -0.5560254122E-03       4    6    1        -0.3171489473E-01      0.6613736572E-01
          0                 4           1             4    6     1       0.2212474676E-04       4    6    1         0.1297139311E-02      0.2705019480E-02

    ------------------------------------------------
       NWT REQUIRED            4 OUTER ITERATIONS 
       AND A TOTAL OF          7 INNER ITERATIONS.
    ------------------------------------------------

 NO OUTPUT CONTROL FOR STRESS PERIOD   11   TIME STEP   18
 
 SOLVING FOR HEAD 
                                                   Max.-Head-Change                         Max.-Flux-Residual
  Residual-Control   Outer-Iter.   Inner-Iter.     Column Row Layer    Maximum-Head-Change  Column Row Layer    Maximum-Flux-Residual          L2-NORM 
          0                 1           2             4    6     1      -0.8084934982E-01       4    6    1        -0.4361968373E+01      0.9123908363E+01
          0                 2           2             4    6     1       0.7863925583E-02       4    6    1         0.4361617908E+00      0.9123451202E+00
          0                 3           2             4    6     1      -0.5355091799E-03       4    6    1        -0.3053167011E-01      0.6386460292E-01
          0                 4           1             4    6     1       0.2130838938E-04       4    6    1         0.1248745517E-02      0.2612065057E-02

    ------------------------------------------------
       NWT REQUIRED            4 OUTER ITERATIONS 
       AND A TOTAL OF          7 INNER ITERATIONS.
    ------------------------------------------------

 NO OUTPUT CONTROL FOR STRESS PERIOD   11   TIME STEP   19
 
 SOLVING FOR HEAD 
                                                   Max.-Head-Change                         Max.-Flux-Residual
  Residual-Control   Outer-Iter.   Inner-Iter.     Column Row Layer    Maximum-Head-Change  Column Row Layer    Maximum-Flux-Residual          L2-NORM 
          0                 1           2             4    6     1      -0.7789890284E-01       4    6    1        -0.4201006898E+01      0.8816461207E+01
          0                 2           2             4    6     1       0.7576969122E-02       4    6    1         0.4200684991E+00      0.8816041230E+00
          0                 3           2             4    6     1      -0.5159681019E-03       4    6    1        -0.2940511217E-01      0.6171269869E-01
          0                 4           1             4    6     1       0.2053083346E-04       4    6    1         0.1202669343E-02      0.2524051400E-02

    ------------------------------------------------
       NWT REQUIRED            4 OUTER ITERATIONS 
       AND A TOTAL OF          7 INNER ITERATIONS.
    ------------------------------------------------

 NO OUTPUT CONTROL FOR STRESS PERIOD   11   TIME STEP   20
 
 SOLVING FOR HEAD 
                                                   Max.-Head-Change                         Max.-Flux-Residual
  Residual-Control   Outer-Iter.   Inner-Iter.     Column Row Layer    Maximum-Head-Change  Column Row Layer    Maximum-Flux-Residual          L2-NORM 
          0                 1           2             4    6     1      -0.7508761320E-01       4    6    1        -0.4047695813E+01      0.8524947305E+01
          0                 2           2             4    6     1       0.7303545166E-02       4    6    1         0.4047399900E+00      0.8524560825E+00
          0                 3           2             4    6     1      -0.4973485740E-03       4    6    1        -0.2833209149E-01      0.5967230475E-01
          0                 4           1             4    6     1       0.1978994705E-04       4    6    1         0.1158782860E-02      0.2440601140E-02

    ------------------------------------------------
       NWT REQUIRED            4 OUTER ITERATIONS 
       AND A TOTAL OF          7 INNER ITERATIONS.
    ------------------------------------------------

 NO OUTPUT CONTROL FOR STRESS PERIOD   11   TIME STEP   21
 
 SOLVING FOR HEAD 
                                                   Max.-Head-Change                         Max.-Flux-Residual
  Residual-Control   Outer-Iter.   Inner-Iter.     Column Row Layer    Maximum-Head-Change  Column Row Layer    Maximum-Flux-Residual          L2-NORM 
          0                 1           2             4    6     1      -0.7240787253E-01       4    6    1        -0.3901615237E+01      0.8248292880E+01
          0                 2           2             4    6     1       0.7042913971E-02       4    6    1         0.3901343003E+00      0.8247936924E+00
          0                 3           2             4    6     1      -0.4796002186E-03       4    6    1        -0.2730967038E-01      0.5773590988E-01
          0                 4           1             4    6     1       0.1908372534E-04       4    6    1         0.1116965875E-02      0.2361400545E-02

    ------------------------------------------------
       NWT REQUIRED            4 OUTER ITERATIONS 
       AND A TOTAL OF          7 INNER ITERATIONS.
    ------------------------------------------------

 NO OUTPUT CONTROL FOR STRESS PERIOD   11   TIME STEP   22
 
 SOLVING FOR HEAD 
                                                   Max.-Head-Change                         Max.-Flux-Residual
  Residual-Control   Outer-Iter.   Inner-Iter.     Column Row Layer    Maximum-Head-Change  Column Row Layer    Maximum-Flux-Residual          L2-NORM 
          0                 1           2             4    6     1      -0.6985280608E-01       4    6    1        -0.3762385587E+01      0.7985500658E+01
          0                 2           2             4    6     1       0.6794407122E-02       4    6    1         0.3762134933E+00      0.7985172253E+00
          0                 3           2             4    6     1      -0.4626775161E-03       4    6    1        -0.2633519306E-01      0.5589653474E-01
          0                 4           1             4    6     1       0.1841035644E-04       4    6    1         0.1077109789E-02      0.2286170610E-02

    ------------------------------------------------
       NWT REQUIRED            4 OUTER ITERATIONS 
       AND A TOTAL OF          7 INNER ITERATIONS.
    ------------------------------------------------

 NO OUTPUT CONTROL FOR STRESS PERIOD   11   TIME STEP   23
 
 SOLVING FOR HEAD 
                                                   Max.-Head-Change                         Max.-Flux-Residual
  Residual-Control   Outer-Iter.   Inner-Iter.     Column Row Layer    Maximum-Head-Change  Column Row Layer    Maximum-Flux-Residual          L2-NORM 
          0                 1           2             4    6     1      -0.6741513192E-01       4    6    1        -0.3629605567E+01      0.7735630123E+01
          0                 2           2             4    6     1       0.6557316584E-02       4    6    1         0.3629374600E+00      0.7735326858E+00
          0                 3           2             4    6     1      -0.4465322492E-03       4    6    1        -0.2540585170E-01      0.5414759173E-01
          0                 4           1             4    6     1       0.1776792302E-04       4    6    1         0.1039099776E-02      0.2214638411E-02

    ------------------------------------------------
       NWT REQUIRED            4 OUTER ITERATIONS 
       AND A TOTAL OF          7 INNER ITERATIONS.
    ------------------------------------------------

 NO OUTPUT CONTROL FOR STRESS PERIOD   11   TIME STEP   24
 
 SOLVING FOR HEAD 
                                                   Max.-Head-Change                         Max.-Flux-Residual
  Residual-Control   Outer-Iter.   Inner-Iter.     Column Row Layer    Maximum-Head-Change  Column Row Layer    Maximum-Flux-Residual          L2-NORM 
          0                 1           2             4    6     1      -0.6508883060E-01       4    6    1        -0.3502942397E+01      0.7497839103E+01
          0                 2           2             4    6     1       0.6331057086E-02       4    6    1         0.3502729401E+00      0.7497558716E+00
          0                 3           2             4    6     1      -0.4311245600E-03       4    6    1        -0.2451931793E-01      0.5248319442E-01
          0                 4           1             4    6     1       0.1715483792E-04       4    6    1         0.1002840554E-02      0.2146565392E-02

    ------------------------------------------------
       NWT REQUIRED            4 OUTER ITERATIONS 
       AND A TOTAL OF          7 INNER ITERATIONS.
    ------------------------------------------------

 NO OUTPUT CONTROL FOR STRESS PERIOD   11   TIME STEP   25
 
 SOLVING FOR HEAD 
                                                   Max.-Head-Change                         Max.-Flux-Residual
  Residual-Control   Outer-Iter.   Inner-Iter.     Column Row Layer    Maximum-Head-Change  Column Row Layer    Maximum-Flux-Residual          L2-NORM 
          0                 1           2             4    6     1      -0.6286798455E-01       4    6    1        -0.3382069011E+01      0.7271345326E+01
          0                 2           2             4    6     1       0.6115053246E-02       4    6    1         0.3381872430E+00      0.7271085806E+00
          0                 3           2             4    6     1      -0.4164152655E-03       4    6    1        -0.2367330324E-01      0.5089786137E-01
          0                 4           1             4    6     1       0.1656954255E-04       4    6    1         0.9682385823E-03      0.2081724688E-02

    ------------------------------------------------
       NWT REQUIRED            4 OUTER ITERATIONS 
       AND A TOTAL OF          7 INNER ITERATIONS.
    ------------------------------------------------

 NO OUTPUT CONTROL FOR STRESS PERIOD   11   TIME STEP   26
 
 SOLVING FOR HEAD 
                                                   Max.-Head-Change                         Max.-Flux-Residual
  Residual-Control   Outer-Iter.   Inner-Iter.     Column Row Layer    Maximum-Head-Change  Column Row Layer    Maximum-Flux-Residual          L2-NORM 
          0                 1           2             4    6     1      -0.6074674024E-01       4    6    1        -0.3266663633E+01      0.7055408351E+01
          0                 2           2             4    6     1       0.5908735887E-02       4    6    1         0.3266482059E+00      0.7055167835E+00
          0                 3           2             4    6     1      -0.4023656043E-03       4    6    1        -0.2286555606E-01      0.4938641877E-01
          0                 4           1             4    6     1       0.1601049490E-04       4    6    1         0.9352017578E-03      0.2019905678E-02

    ------------------------------------------------
       NWT REQUIRED            4 OUTER ITERATIONS 
       AND A TOTAL OF          7 INNER ITERATIONS.
    ------------------------------------------------

 NO OUTPUT CONTROL FOR STRESS PERIOD   11   TIME STEP   27
 
 SOLVING FOR HEAD 
                                                   Max.-Head-Change                         Max.-Flux-Residual
  Residual-Control   Outer-Iter.   Inner-Iter.     Column Row Layer    Maximum-Head-Change  Column Row Layer    Maximum-Flux-Residual          L2-NORM 
          0                 1           2             4    6     1      -0.5871987337E-01       4    6    1        -0.3156437672E+01      0.6849342701E+01
          0                 2           2             4    6     1       0.5711597021E-02       4    6    1         0.3156269825E+00      0.6849119555E+00
          0                 3           2             4    6     1      -0.3889409825E-03       4    6    1        -0.2209405713E-01      0.4794406594E-01
          0                 4           1             4    6     1       0.1547631711E-04       4    6    1         0.9036474378E-03      0.1960912226E-02

    ------------------------------------------------
       NWT REQUIRED            4 OUTER ITERATIONS 
       AND A TOTAL OF          7 INNER ITERATIONS.
    ------------------------------------------------

 NO OUTPUT CONTROL FOR STRESS PERIOD   11   TIME STEP   28
 
 SOLVING FOR HEAD 
                                                   Max.-Head-Change                         Max.-Flux-Residual
  Residual-Control   Outer-Iter.   Inner-Iter.     Column Row Layer    Maximum-Head-Change  Column Row Layer    Maximum-Flux-Residual          L2-NORM 
          0                 1           2             4    6     1      -0.5678247882E-01       4    6    1        -0.3051120231E+01      0.6652549310E+01
          0                 2           2             4    6     1       0.5523157080E-02       4    6    1         0.3050964952E+00      0.6653570661E+00
          0                 3           2             4    6     1      -0.3761087426E-03       4    6    1        -0.2135691082E-01      0.4657520838E-01
          0                 4           1             4    6     1       0.1496571170E-04       4    6    1         0.8734981918E-03      0.1904926678E-02

    ------------------------------------------------
       NWT REQUIRED            4 OUTER ITERATIONS 
       AND A TOTAL OF          7 INNER ITERATIONS.
    ------------------------------------------------

 NO OUTPUT CONTROL FOR STRESS PERIOD   11   TIME STEP   29
 
 SOLVING FOR HEAD 
                                                   Max.-Head-Change                         Max.-Flux-Residual
  Residual-Control   Outer-Iter.   Inner-Iter.     Column Row Layer    Maximum-Head-Change  Column Row Layer    Maximum-Flux-Residual          L2-NORM 
          0                 1           2             4    6     1      -0.5492996228E-01       4    6    1        -0.2950457103E+01      0.6464346922E+01
          0                 2           2             4    6     1       0.5342977121E-02       4    6    1         0.2950313337E+00      0.6464154719E+00
          0                 3           2             4    6     1      -0.3638389912E-03       4    6    1        -0.2065233830E-01      0.4524928274E-01
          0                 4           1             4    6     1       0.1447748801E-04       4    6    1         0.8446812042E-03      0.1850696843E-02

    ------------------------------------------------
       NWT REQUIRED            4 OUTER ITERATIONS 
       AND A TOTAL OF          7 INNER ITERATIONS.
    ------------------------------------------------

 NO OUTPUT CONTROL FOR STRESS PERIOD   11   TIME STEP   30



 STREAM LISTING     PERIOD     11   STEP       30

 LAYER ROW COL. STREAM  RCH.  FLOW INTO     FLOW TO   FLOW OUT OF   OVRLND.     DIRECT     STREAM       STREAM     STREAM     STREAM   STREAMBED  STREAMBED
                SEG.NO.  NO.  STRM. RCH.    AQUIFER    STRM. RCH.    RUNOFF     PRECIP       ET          HEAD       DEPTH      WIDTH   CONDCTNC.   GRADIENT

   1    1    1     1     1    2.6250E+01  2.5084E-01   2.5999E+01  0.000E+00  0.000E+00  0.000E+00  1.09424E+03  1.197E+00  1.328E+01  5.977E-02  1.399E+00
   1    2    2     1     2    2.5999E+01  3.8795E-01   2.5611E+01  0.000E+00  0.000E+00  0.000E+00  1.08925E+03  1.192E+00  1.322E+01  9.255E-02  1.397E+00
   1    3    3     1     3    2.5611E+01  3.3035E-01   2.5281E+01  0.000E+00  0.000E+00  0.000E+00  1.08361E+03  1.187E+00  1.315E+01  7.890E-02  1.396E+00
   1    3    4     1     4    2.5281E+01  3.0378E-01   2.4977E+01  0.000E+00  0.000E+00  0.000E+00  1.07859E+03  1.182E+00  1.309E+01  7.264E-02  1.394E+00
   1    4    5     2     1    2.2977E+01  3.2316E-01   2.2654E+01  0.000E+00  0.000E+00  0.000E+00  1.07308E+03  1.143E+00  1.200E+01  7.800E-02  1.381E+00
   1    5    6     2     2    2.2654E+01  2.4807E-01   2.2406E+01  0.000E+00  0.000E+00  0.000E+00  1.06764E+03  1.134E+00  1.200E+01  6.000E-02  1.378E+00
   1    6    6     2     3    2.2406E+01  2.4762E-01   2.2158E+01  0.000E+00  0.000E+00  0.000E+00  1.06292E+03  1.127E+00  1.200E+01  6.000E-02  1.376E+00
   1    7    6     2     4    2.2158E+01  2.4717E-01   2.1911E+01  0.000E+00  0.000E+00  0.000E+00  1.05819E+03  1.119E+00  1.200E+01  6.000E-02  1.373E+00
   1    8    6     2     5    2.1911E+01  2.4671E-01   2.1664E+01  0.000E+00  0.000E+00  0.000E+00  1.05347E+03  1.112E+00  1.200E+01  6.000E-02  1.371E+00
   1    3    5     3     1    2.0000E+00  2.8252E-01   1.7175E+00  0.000E+00  0.000E+00  0.000E+00  1.07555E+03  1.909E+00  9.636E+00  7.227E-02  1.955E+00
   1    3    6     3     2    1.7175E+00  2.4905E-01   1.4684E+00  0.000E+00  0.000E+00  0.000E+00  1.07264E+03  1.727E+00  8.909E+00  6.682E-02  1.864E+00
   1    3    7     3     3    1.4684E+00  1.9718E-01   1.2712E+00  0.000E+00  0.000E+00  0.000E+00  1.06987E+03  1.555E+00  8.218E+00  5.547E-02  1.777E+00
   1    4    8     3     4    1.2712E+00  2.2567E-01   1.0456E+00  0.000E+00  0.000E+00  0.000E+00  1.06682E+03  1.364E+00  7.455E+00  6.709E-02  1.682E+00
   1    5    8     3     5    1.0456E+00  1.5790E-01   8.8768E-01  0.000E+00  0.000E+00  0.000E+00  1.06362E+03  1.164E+00  6.655E+00  4.991E-02  1.582E+00
   1    6    8     3     6    8.8768E-01  5.5980E-02   8.3170E-01  0.000E+00  0.000E+00  0.000E+00  1.06158E+03  1.036E+00  6.145E+00  1.844E-02  1.518E+00
   1    5   10     4     1    1.0000E+01  9.0919E-02   9.9091E+00  0.000E+00  0.000E+00  0.000E+00  1.07836E+03  6.368E-01  1.000E+01  2.500E-02  1.212E+00
   1    5    9     4     2    9.9091E+00  1.8158E-01   9.7275E+00  0.000E+00  0.000E+00  0.000E+00  1.07154E+03  6.315E-01  1.000E+01  5.000E-02  1.211E+00
   1    6    8     4     3    9.7275E+00  1.2689E-01   9.6006E+00  0.000E+00  0.000E+00  0.000E+00  1.06381E+03  6.256E-01  1.000E+01  3.500E-02  1.209E+00
   1    6    8     5     1    1.0432E+01  2.2686E-01   1.0205E+01  0.000E+00  0.000E+00  0.000E+00  1.05868E+03  6.790E-01  1.542E+01  6.166E-02  1.226E+00
   1    7    7     5     2    1.0205E+01  2.7894E-01   9.9265E+00  0.000E+00  0.000E+00  0.000E+00  1.05417E+03  6.732E-01  1.519E+01  7.594E-02  1.224E+00
   1    8    7     5     3    9.9265E+00  1.9221E-01   9.7343E+00  0.000E+00  0.000E+00  0.000E+00  1.04992E+03  6.676E-01  1.497E+01  5.241E-02  1.223E+00
   1    8    6     5     4    9.7343E+00  1.3577E-01   9.5985E+00  0.000E+00  0.000E+00  0.000E+00  1.04691E+03  6.637E-01  1.482E+01  3.706E-02  1.221E+00
   1    9    6     6     1    3.1263E+01  2.6357E-01   3.0999E+01  0.000E+00  0.000E+00  0.000E+00  1.04412E+03  1.393E+00  1.200E+01  6.000E-02  1.464E+00
   1   10    7     6     2    3.0999E+01  2.6314E-01   3.0736E+01  0.000E+00  0.000E+00  0.000E+00  1.03957E+03  1.386E+00  1.200E+01  6.000E-02  1.462E+00
   1   11    7     6     3    3.0736E+01  2.6272E-01   3.0473E+01  0.000E+00  0.000E+00  0.000E+00  1.03502E+03  1.379E+00  1.200E+01  6.000E-02  1.460E+00
   1   12    7     6     4    3.0473E+01  2.6229E-01   3.0211E+01  0.000E+00  0.000E+00  0.000E+00  1.03046E+03  1.372E+00  1.200E+01  6.000E-02  1.457E+00
   1   13    7     6     5    3.0211E+01  5.2140E-03   3.0206E+01  0.000E+00  0.000E+00  0.000E+00  1.02728E+03  1.368E+00  1.200E+01  2.400E-02  7.242E-02
   1   14    9     7     1    1.5000E+02  1.3372E+00   1.4866E+02  0.000E+00  0.000E+00  0.000E+00  1.03987E+03  2.288E+00  5.529E+01  5.593E-01  7.970E-01
   1   13    8     7     2    1.4866E+02  1.8364E+00   1.4683E+02  0.000E+00  0.000E+00  0.000E+00  1.03478E+03  2.279E+00  5.526E+01  6.148E-01  9.957E-01
   1   13    7     7     3    1.4683E+02  1.4688E+00   1.4536E+02  0.000E+00  0.000E+00  0.000E+00  1.02969E+03  2.270E+00  5.522E+01  5.585E-01  8.767E-01
   1   13    6     8     1    1.7556E+02  9.4556E-01   1.7462E+02  0.000E+00  0.000E+00  0.000E+00  1.02486E+03  2.985E+00  4.328E+01  4.411E-01  7.146E-01
   1   13    5     8     2    1.7462E+02  1.9224E-01   1.7443E+02  0.000E+00  0.000E+00  0.000E+00  1.01861E+03  2.981E+00  4.323E+01  4.405E-01  1.455E-01
   1   13    4     8     3    1.7443E+02 -2.3923E+00   1.7682E+02  0.000E+00  0.000E+00  0.000E+00  1.01236E+03  2.988E+00  4.333E+01  4.416E+00 -1.806E-01
   1   13    3     8     4    1.7682E+02 -3.6314E+00   1.8045E+02  0.000E+00  0.000E+00  0.000E+00  1.00613E+03  3.008E+00  4.361E+01  4.444E+00 -2.724E-01
   1   13    2     8     5    1.8045E+02 -2.5601E+00   1.8301E+02  0.000E+00  0.000E+00  0.000E+00  9.99902E+02  3.027E+00  4.389E+01  4.473E+00 -1.908E-01
   1   13    1     8     6    1.8301E+02 -1.9594E+00   1.8497E+02  0.000E+00  0.000E+00  0.000E+00  9.94916E+02  3.041E+00  4.410E+01  2.696E+00 -2.423E-01
   1    8    6     9     1    0.0000E+00  0.0000E+00   0.0000E+00  0.000E+00  0.000E+00  0.000E+00  1.07875E+03  0.000E+00  4.000E+00  0.000E+00  1.000E+00
   1    8    5     9     2    0.0000E+00  0.0000E+00   0.0000E+00  0.000E+00  0.000E+00  0.000E+00  1.07825E+03  0.000E+00  4.000E+00  0.000E+00  1.000E+00





UNSATURATED ZONE PACKAGE VOLUMETRIC BUDGET FOR  TIME STEP    30 STRESS PERIOD   11
  ------------------------------------------------------------------------------



     CUMULATIVE VOLUMES      L**3       RATES FOR THIS TIME STEP      L**3/T
     ------------------                 ------------------------

           IN:                                      IN:
           ---                                      ---
        INFILTRATION =  1595116555.0831          INFILTRATION =           0.8475

          OUT:                                     OUT:
          ----                                     ----
              UZF ET =   428330187.3991                UZF ET =           0.8475
        UZF RECHARGE =   887717398.7402          UZF RECHARGE =       0.0000E+00

            IN - OUT =   279068968.9437              IN - OUT =       0.0000E+00

          STORAGE:                                 STORAGE:
          --------                                 --------
      STORAGE CHANGE =   279071074.1566        STORAGE CHANGE =      -4.2480E-13

 PERCENT DISCREPANCY IS DIFFERENCE BETWEEN IN-OUT MINUS CHANGE IN STORAGE
 DIVIDED BY THE AVERAGE OF IN AND OUT TIMES 100

 PERCENT DISCREPANCY =          -0.00     PERCENT DISCREPANCY =           0.00






1
  VOLUMETRIC BUDGET FOR AGRICULTURAL FIELDS AT  END OF TIME STEP   30, STRESS PERIOD  11
  ------------------------------------------------------------------------------

     CUMULATIVE VOLUMES      L**3       RATES FOR THIS TIME STEP      L**3/T
     ------------------                 ------------------------

           IN:                                      IN:
           ---                                      ---
           AG WELLS      =  1024023808.0000             AG WELLS      =           0.0000
      DIVERSION SEGMENTS =   548718528.0000        DIVERSION SEGMENTS =           0.0000
           GW IRRIGATION =           0.0000             GW IRRIGATION =           0.0000
           SW IRRIGATION =           0.0000             SW IRRIGATION =           0.0000
        SYSTEM LOSSES GW =           0.0000          SYSTEM LOSSES GW =           0.0000
        SYSTEM LOSSES SW =           0.0000          SYSTEM LOSSES SW =           0.0000

                TOTAL IN =  1572742400.0000                  TOTAL IN =           0.0000

          OUT:                                     OUT:
          ----                                     ----
           AG WELLS      =           0.0000             AG WELLS      =           0.0000
      DIVERSION SEGMENTS =           0.0000        DIVERSION SEGMENTS =           0.0000
           GW IRRIGATION =  1024023808.0000             GW IRRIGATION =           0.0000
           SW IRRIGATION =   548729152.0000             SW IRRIGATION =           0.0000
        SYSTEM LOSSES GW =           0.0000          SYSTEM LOSSES GW =           0.0000
        SYSTEM LOSSES SW =           0.0000          SYSTEM LOSSES SW =           0.0000

               TOTAL OUT =  1572752896.0000                 TOTAL OUT =           0.0000

                IN - OUT =      -10496.0000                  IN - OUT =           0.0000

     PERCENT DISCREPANCY =          -0.00         PERCENT DISCREPANCY =           0.00



1
  VOLUMETRIC BUDGET FOR ENTIRE MODEL AT END OF TIME STEP   30, STRESS PERIOD  11
  ------------------------------------------------------------------------------

     CUMULATIVE VOLUMES      L**3       RATES FOR THIS TIME STEP      L**3/T
     ------------------                 ------------------------

           IN:                                      IN:
           ---                                      ---
             STORAGE     =  1069667200.0000               STORAGE     =          15.0416
       CONSTANT HEAD     =           0.0000         CONSTANT HEAD     =           0.0000
     HEAD DEP BOUNDS     =     7540163.5000       HEAD DEP BOUNDS     =           0.2859
      STREAM LEAKAGE     =   318531744.0000        STREAM LEAKAGE     =          11.8242
        UZF RECHARGE     =   887717248.0000          UZF RECHARGE     =           0.0000
               GW ET     =           0.0000                 GW ET     =           0.0000
     SURFACE LEAKAGE     =           0.0000       SURFACE LEAKAGE     =           0.0000
           AG WELLS      =           0.0000             AG WELLS      =           0.0000

                TOTAL IN =  2283456512.0000                  TOTAL IN =          27.1517

          OUT:                                     OUT:
          ----                                     ----
             STORAGE     =   965923520.0000               STORAGE     =          16.3181
       CONSTANT HEAD     =           0.0000         CONSTANT HEAD     =           0.0000
     HEAD DEP BOUNDS     =     7644297.5000       HEAD DEP BOUNDS     =           0.2904
      STREAM LEAKAGE     =   285804992.0000        STREAM LEAKAGE     =          10.5431
        UZF RECHARGE     =           0.0000          UZF RECHARGE     =           0.0000
               GW ET     =       56916.5898                 GW ET     =           0.0000
     SURFACE LEAKAGE     =           0.0000       SURFACE LEAKAGE     =           0.0000
           AG WELLS      =  1024023808.0000             AG WELLS      =           0.0000

               TOTAL OUT =  2283453440.0000                 TOTAL OUT =          27.1516

                IN - OUT =        3072.0000                  IN - OUT =       7.6294E-06

     PERCENT DISCREPANCY =           0.00         PERCENT DISCREPANCY =           0.00






         TIME SUMMARY AT END OF TIME STEP   30 IN STRESS PERIOD   11
                    SECONDS     MINUTES      HOURS       DAYS        YEARS
                    -----------------------------------------------------------
   TIME STEP LENGTH  87667.      1461.1      24.352      1.0147     2.77799E-03
 STRESS PERIOD TIME 2.63000E+06  43833.      730.56      30.440     8.33397E-02
         TOTAL TIME 2.63864E+07 4.39773E+05  7329.5      305.40     0.83613    
1
1
                            STRESS PERIOD NO.   12, LENGTH =   2630000.    
                            -----------------------------------------------

                              NUMBER OF TIME STEPS =    30

                               MULTIPLIER FOR DELT =     1.000

                            INITIAL TIME STEP SIZE =   87666.66    

 REUSING NON-PARAMETER GHB CELLS FROM LAST STRESS PERIOD

      2 GHB CELLS

 REUSING STREAM SEGMENT DATA FROM LAST STRESS PERIOD



            AREAL INFILTRATION RATE
 READING ON UNIT   19 WITH FORMAT: (FREE)              

            1           2           3           4           5           6           7           8           9          10
 ........................................................................................................................
   1   1.0000E-10  2.0000E-10   0.000       0.000       0.000       0.000       0.000       0.000       0.000       0.000    
   2   2.0000E-10  1.0000E-10  2.0000E-10   0.000       0.000      8.0000E-10  8.0000E-10  5.0000E-10   0.000       0.000    
   3    0.000      5.0000E-10  1.0000E-10  1.0000E-10  8.0000E-10  8.0000E-10  5.0000E-10  5.0000E-10   0.000       0.000    
   4   8.0000E-10  5.0000E-10  1.0000E-10  1.0000E-10  1.0000E-10  1.0000E-10  1.0000E-10  1.0000E-10  2.0000E-10   0.000    
   5   8.0000E-10  5.0000E-10  1.0000E-10  1.0000E-10  1.0000E-10  1.0000E-10  1.0000E-10  1.0000E-10  1.0000E-10  1.0000E-10
   6   8.0000E-10  5.0000E-10  5.0000E-10  2.0000E-10  2.0000E-10  1.0000E-10  1.0000E-10  1.0000E-10  1.0000E-10  5.0000E-10
   7   8.0000E-10  5.0000E-10  5.0000E-10  2.0000E-10  2.0000E-10  1.0000E-10  1.0000E-10  2.0000E-10  2.0000E-10   0.000    
   8    0.000      5.0000E-10  5.0000E-10  2.0000E-10  2.0000E-10  1.0000E-10  1.0000E-10  2.0000E-10  5.0000E-10   0.000    
   9    0.000      5.0000E-10  5.0000E-10  2.0000E-10  2.0000E-10  1.0000E-10  1.0000E-10  2.0000E-10  5.0000E-10   0.000    
  10    0.000      5.0000E-10  5.0000E-10  2.0000E-10  2.0000E-10  1.0000E-10  1.0000E-10  2.0000E-10  5.0000E-10  8.0000E-10
  11    0.000      1.0000E-10  1.0000E-10  1.0000E-10  1.0000E-10  1.0000E-10  1.0000E-10  2.0000E-10  5.0000E-10   0.000    
  12   1.0000E-10  1.0000E-10  1.0000E-10  1.0000E-10  1.0000E-10  1.0000E-10  1.0000E-10  1.0000E-10  2.0000E-10   0.000    
  13   1.0000E-10  1.0000E-10  2.0000E-10  2.0000E-10  2.0000E-10  2.0000E-10  2.0000E-10  1.0000E-10  1.0000E-10   0.000    
  14    0.000      2.0000E-10  5.0000E-10  5.0000E-10  5.0000E-10  5.0000E-10  5.0000E-10  2.0000E-10  1.0000E-10   0.000    
  15    0.000       0.000      8.0000E-10  8.0000E-10  8.0000E-10  8.0000E-10   0.000       0.000       0.000       0.000    

                  ET RATE =  5.000000E-10

 USING ET EXTINCTION DEPTH FROM PREVIOUS STRESS PERIOD. CURRENT PERIOD IS:      12

 USING EXTINCTION WATER CONTENT FROM PREVIOUS STRESS PERIOD. CURRENT PERIOD IS:      12

 USING AIR ENTRY PRESSURE FROM PREVIOUS STRESS PERIOD. CURRENT PERIOD IS:      12

 USING ROOT PRESSURE HEAD FROM PREVIOUS STRESS PERIOD. CURRENT PERIOD IS:      12

 USING ROOT ACTIVITY FROM PREVIOUS STRESS PERIOD. CURRENT PERIOD IS:      12

 PROCESSING AG STRESS PERIOD DATA

 READING AG STRESS PERIOD DATA

 READING IRRIGATION SEGMENT

 READING IRRIGATION WELL

 READING SUPPLEMENTAL WELL

 END PROCESSING AG STRESS PERIOD DATA OPTIONS
 
 SOLVING FOR HEAD 
                                                   Max.-Head-Change                         Max.-Flux-Residual
  Residual-Control   Outer-Iter.   Inner-Iter.     Column Row Layer    Maximum-Head-Change  Column Row Layer    Maximum-Flux-Residual          L2-NORM 
          0                 1           2             4    6     1      -0.5315775036E-01       4    6    1        -0.2854194720E+01      0.6280788052E+01
          0                 2           2             4    6     1       0.5170604626E-02       4    6    1         0.2854061515E+00      0.6280424117E+00
          0                 3           2             4    6     1      -0.3521009124E-03       4    6    1        -0.1997856527E-01      0.4396149447E-01
          0                 4           1             4    6     1       0.1401041925E-04       4    6    1         0.8171238640E-03      0.1797927798E-02

    ------------------------------------------------
       NWT REQUIRED            4 OUTER ITERATIONS 
       AND A TOTAL OF          7 INNER ITERATIONS.
    ------------------------------------------------

 NO OUTPUT CONTROL FOR STRESS PERIOD   12   TIME STEP    1
 
 SOLVING FOR HEAD 
                                                   Max.-Head-Change                         Max.-Flux-Residual
  Residual-Control   Outer-Iter.   Inner-Iter.     Column Row Layer    Maximum-Head-Change  Column Row Layer    Maximum-Flux-Residual          L2-NORM 
          0                 1           2             4    6     1      -0.5146180212E-01       4    6    1        -0.2762111281E+01      0.6108269748E+01
          0                 2           2             4    6     1       0.5005649239E-02       4    6    1         0.2761987764E+00      0.6107868421E+00
          0                 3           2             4    6     1      -0.3408679239E-03       4    6    1        -0.1933403956E-01      0.4275311787E-01
          0                 4           1             4    6     1       0.1356344900E-04       4    6    1         0.7907627696E-03      0.1748441697E-02

    ------------------------------------------------
       NWT REQUIRED            4 OUTER ITERATIONS 
       AND A TOTAL OF          7 INNER ITERATIONS.
    ------------------------------------------------

 NO OUTPUT CONTROL FOR STRESS PERIOD   12   TIME STEP    2
 
 SOLVING FOR HEAD 
                                                   Max.-Head-Change                         Max.-Flux-Residual
  Residual-Control   Outer-Iter.   Inner-Iter.     Column Row Layer    Maximum-Head-Change  Column Row Layer    Maximum-Flux-Residual          L2-NORM 
          0                 1           2             4    6     1      -0.4983829747E-01       4    6    1        -0.2673997112E+01      0.5942716755E+01
          0                 2           2             4    6     1       0.4847739480E-02       4    6    1         0.2673882491E+00      0.5942353694E+00
          0                 3           2             4    6     1      -0.3301147280E-03       4    6    1        -0.1871729396E-01      0.4159474611E-01
          0                 4           1             4    6     1       0.1313557037E-04       4    6    1         0.7655378979E-03      0.1701132715E-02

    ------------------------------------------------
       NWT REQUIRED            4 OUTER ITERATIONS 
       AND A TOTAL OF          7 INNER ITERATIONS.
    ------------------------------------------------

 NO OUTPUT CONTROL FOR STRESS PERIOD   12   TIME STEP    3
 
 SOLVING FOR HEAD 
                                                   Max.-Head-Change                         Max.-Flux-Residual
  Residual-Control   Outer-Iter.   Inner-Iter.     Column Row Layer    Maximum-Head-Change  Column Row Layer    Maximum-Flux-Residual          L2-NORM 
          0                 1           2             4    6     1      -0.4828309144E-01       4    6    1        -0.2589624296E+01      0.5783994268E+01
          0                 2           2             4    6     1       0.4696472227E-02       4    6    1         0.2589517850E+00      0.5784678232E+00
          0                 3           2             4    6     1      -0.3198138722E-03       4    6    1        -0.1812673349E-01      0.4049122224E-01
          0                 4           1             4    6     1       0.1272569032E-04       4    6    1         0.7413839669E-03      0.1655971293E-02

    ------------------------------------------------
       NWT REQUIRED            4 OUTER ITERATIONS 
       AND A TOTAL OF          7 INNER ITERATIONS.
    ------------------------------------------------

 NO OUTPUT CONTROL FOR STRESS PERIOD   12   TIME STEP    4
 
 SOLVING FOR HEAD 
                                                   Max.-Head-Change                         Max.-Flux-Residual
  Residual-Control   Outer-Iter.   Inner-Iter.     Column Row Layer    Maximum-Head-Change  Column Row Layer    Maximum-Flux-Residual          L2-NORM 
          0                 1           2             4    6     1      -0.4679283679E-01       4    6    1        -0.2508807750E+01      0.5631645473E+01
          0                 2           2             4    6     1       0.4551522094E-02       4    6    1         0.2508708821E+00      0.5631348306E+00
          0                 3           2             4    6     1      -0.3099431981E-03       4    6    1        -0.1756106292E-01      0.3941818650E-01
          0                 4           1             4    6     1       0.1233292745E-04       4    6    1         0.7182480365E-03      0.1612101071E-02

    ------------------------------------------------
       NWT REQUIRED            4 OUTER ITERATIONS 
       AND A TOTAL OF          7 INNER ITERATIONS.
    ------------------------------------------------

 NO OUTPUT CONTROL FOR STRESS PERIOD   12   TIME STEP    5
 
 SOLVING FOR HEAD 
                                                   Max.-Head-Change                         Max.-Flux-Residual
  Residual-Control   Outer-Iter.   Inner-Iter.     Column Row Layer    Maximum-Head-Change  Column Row Layer    Maximum-Flux-Residual          L2-NORM 
          0                 1           2             4    7     1      -0.4544513021E-01       4    6    1        -0.2431388815E+01      0.5485306271E+01
          0                 2           2             4    7     1       0.4420497708E-02       4    6    1         0.2431296802E+00      0.5485171453E+00
          0                 3           2             4    7     1      -0.3010202318E-03       4    6    1        -0.1701917202E-01      0.3839501174E-01
          0                 4           1             4    7     1       0.1197787324E-04       4    6    1         0.6960846983E-03      0.1570289291E-02

    ------------------------------------------------
       NWT REQUIRED            4 OUTER ITERATIONS 
       AND A TOTAL OF          7 INNER ITERATIONS.
    ------------------------------------------------

 NO OUTPUT CONTROL FOR STRESS PERIOD   12   TIME STEP    6
 
 SOLVING FOR HEAD 
                                                   Max.-Head-Change                         Max.-Flux-Residual
  Residual-Control   Outer-Iter.   Inner-Iter.     Column Row Layer    Maximum-Head-Change  Column Row Layer    Maximum-Flux-Residual          L2-NORM 
          0                 1           2             4    7     1      -0.4473272264E-01       4    7    1        -0.2361338088E+01      0.5344705286E+01
          0                 2           2             4    7     1       0.4351200966E-02       4    7    1         0.2361290132E+00      0.5344459234E+00
          0                 3           2             4    7     1      -0.2963013701E-03       4    7    1        -0.1652908344E-01      0.3741015143E-01
          0                 4           1             4    7     1       0.1179010519E-04       4    7    1         0.6760402432E-03      0.1529986501E-02

    ------------------------------------------------
       NWT REQUIRED            4 OUTER ITERATIONS 
       AND A TOTAL OF          7 INNER ITERATIONS.
    ------------------------------------------------

 NO OUTPUT CONTROL FOR STRESS PERIOD   12   TIME STEP    7
 
 SOLVING FOR HEAD 
                                                   Max.-Head-Change                         Max.-Flux-Residual
  Residual-Control   Outer-Iter.   Inner-Iter.     Column Row Layer    Maximum-Head-Change  Column Row Layer    Maximum-Flux-Residual          L2-NORM 
          0                 1           2             4    7     1      -0.4401752059E-01       4    7    1        -0.2324340129E+01      0.5209393364E+01
          0                 2           2             4    7     1       0.4281632520E-02       4    7    1         0.2324292858E+00      0.5209169510E+00
          0                 3           2             4    7     1      -0.2915640052E-03       4    7    1        -0.1627010177E-01      0.3646328222E-01
          0                 4           1             4    7     1       0.1160160101E-04       4    7    1         0.6654478827E-03      0.1491281404E-02

    ------------------------------------------------
       NWT REQUIRED            4 OUTER ITERATIONS 
       AND A TOTAL OF          7 INNER ITERATIONS.
    ------------------------------------------------

 NO OUTPUT CONTROL FOR STRESS PERIOD   12   TIME STEP    8
 
 SOLVING FOR HEAD 
                                                   Max.-Head-Change                         Max.-Flux-Residual
  Residual-Control   Outer-Iter.   Inner-Iter.     Column Row Layer    Maximum-Head-Change  Column Row Layer    Maximum-Flux-Residual          L2-NORM 
          0                 1           2             4    7     1      -0.4330025221E-01       4    7    1        -0.2287152602E+01      0.5079204229E+01
          0                 2           2             4    7     1       0.4211863217E-02       4    7    1         0.2287106122E+00      0.5078999801E+00
          0                 3           2             4    7     1      -0.2868129611E-03       4    7    1        -0.1600979375E-01      0.3555223189E-01
          0                 4           1             4    7     1       0.1141255274E-04       4    7    1         0.6548012859E-03      0.1454047231E-02

    ------------------------------------------------
       NWT REQUIRED            4 OUTER ITERATIONS 
       AND A TOTAL OF          7 INNER ITERATIONS.
    ------------------------------------------------

 NO OUTPUT CONTROL FOR STRESS PERIOD   12   TIME STEP    9
 
 SOLVING FOR HEAD 
                                                   Max.-Head-Change                         Max.-Flux-Residual
  Residual-Control   Outer-Iter.   Inner-Iter.     Column Row Layer    Maximum-Head-Change  Column Row Layer    Maximum-Flux-Residual          L2-NORM 
          0                 1           2             4    7     1      -0.4258316103E-01       4    7    1        -0.2249902640E+01      0.4953869894E+01
          0                 2           2             4    7     1       0.4142111261E-02       4    7    1         0.2249857038E+00      0.4953682825E+00
          0                 3           2             4    7     1      -0.2820630971E-03       4    7    1        -0.1574904923E-01      0.3467507955E-01
          0                 4           1             4    7     1       0.1122355075E-04       4    7    1         0.6441368043E-03      0.1418197852E-02

    ------------------------------------------------
       NWT REQUIRED            4 OUTER ITERATIONS 
       AND A TOTAL OF          7 INNER ITERATIONS.
    ------------------------------------------------

 NO OUTPUT CONTROL FOR STRESS PERIOD   12   TIME STEP   10
 
 SOLVING FOR HEAD 
                                                   Max.-Head-Change                         Max.-Flux-Residual
  Residual-Control   Outer-Iter.   Inner-Iter.     Column Row Layer    Maximum-Head-Change  Column Row Layer    Maximum-Flux-Residual          L2-NORM 
          0                 1           2             4    7     1      -0.4186695485E-01       4    7    1        -0.2212632091E+01      0.4833114781E+01
          0                 2           2             4    7     1       0.4072445484E-02       4    7    1         0.2212587440E+00      0.4832943321E+00
          0                 3           2             4    7     1      -0.2773191009E-03       4    7    1        -0.1548816103E-01      0.3382996242E-01
          0                 4           1             4    7     1       0.1103478317E-04       4    7    1         0.6334664718E-03      0.1383598903E-02

    ------------------------------------------------
       NWT REQUIRED            4 OUTER ITERATIONS 
       AND A TOTAL OF          7 INNER ITERATIONS.
    ------------------------------------------------

 NO OUTPUT CONTROL FOR STRESS PERIOD   12   TIME STEP   11
 
 SOLVING FOR HEAD 
                                                   Max.-Head-Change                         Max.-Flux-Residual
  Residual-Control   Outer-Iter.   Inner-Iter.     Column Row Layer    Maximum-Head-Change  Column Row Layer    Maximum-Flux-Residual          L2-NORM 
          0                 1           2             4    7     1      -0.4115305871E-01       4    7    1        -0.2175422339E+01      0.4716707351E+01
          0                 2           2             4    7     1       0.4003004482E-02       4    7    1         0.2175378696E+00      0.4716550016E+00
          0                 3           2             4    7     1      -0.2725904098E-03       4    7    1        -0.1522769874E-01      0.3301528429E-01
          0                 4           1             4    7     1       0.1084662437E-04       4    7    1         0.6228135589E-03      0.1350266390E-02

    ------------------------------------------------
       NWT REQUIRED            4 OUTER ITERATIONS 
       AND A TOTAL OF          7 INNER ITERATIONS.
    ------------------------------------------------

 NO OUTPUT CONTROL FOR STRESS PERIOD   12   TIME STEP   12
 
 SOLVING FOR HEAD 
                                                   Max.-Head-Change                         Max.-Flux-Residual
  Residual-Control   Outer-Iter.   Inner-Iter.     Column Row Layer    Maximum-Head-Change  Column Row Layer    Maximum-Flux-Residual          L2-NORM 
          0                 1           2             4    7     1      -0.4044221825E-01       4    7    1        -0.2138317486E+01      0.4604409133E+01
          0                 2           2             4    7     1       0.3933860772E-02       4    7    1         0.2138274898E+00      0.4604264839E+00
          0                 3           2             4    7     1      -0.2678819634E-03       4    7    1        -0.1496797105E-01      0.3222937601E-01
          0                 4           1             4    7     1       0.1065927055E-04       4    7    1         0.6121906868E-03      0.1318143670E-02

    ------------------------------------------------
       NWT REQUIRED            4 OUTER ITERATIONS 
       AND A TOTAL OF          7 INNER ITERATIONS.
    ------------------------------------------------

 NO OUTPUT CONTROL FOR STRESS PERIOD   12   TIME STEP   13
 
 SOLVING FOR HEAD 
                                                   Max.-Head-Change                         Max.-Flux-Residual
  Residual-Control   Outer-Iter.   Inner-Iter.     Column Row Layer    Maximum-Head-Change  Column Row Layer    Maximum-Flux-Residual          L2-NORM 
          0                 1           2             4    7     1      -0.3973564284E-01       4    7    1        -0.2101385977E+01      0.4496044601E+01
          0                 2           2             4    7     1       0.3865131974E-02       4    7    1         0.2101344479E+00      0.4495911818E+00
          0                 3           2             4    7     1      -0.2632017698E-03       4    7    1        -0.1470945696E-01      0.3147093574E-01
          0                 4           1             4    7     1       0.1047304153E-04       4    7    1         0.6016174466E-03      0.1287126945E-02

    ------------------------------------------------
       NWT REQUIRED            4 OUTER ITERATIONS 
       AND A TOTAL OF          7 INNER ITERATIONS.
    ------------------------------------------------

 NO OUTPUT CONTROL FOR STRESS PERIOD   12   TIME STEP   14
 
 SOLVING FOR HEAD 
                                                   Max.-Head-Change                         Max.-Flux-Residual
  Residual-Control   Outer-Iter.   Inner-Iter.     Column Row Layer    Maximum-Head-Change  Column Row Layer    Maximum-Flux-Residual          L2-NORM 
          0                 1           2             4    7     1      -0.3903415224E-01       4    7    1        -0.2064675624E+01      0.4391390913E+01
          0                 2           2             4    7     1       0.3796897818E-02       4    7    1         0.2064635243E+00      0.4391268491E+00
          0                 3           2             4    7     1      -0.2585552598E-03       4    7    1        -0.1445249115E-01      0.3073850184E-01
          0                 4           1             4    7     1       0.1028815259E-04       4    7    1         0.5911075318E-03      0.1257176783E-02

    ------------------------------------------------
       NWT REQUIRED            4 OUTER ITERATIONS 
       AND A TOTAL OF          7 INNER ITERATIONS.
    ------------------------------------------------

 NO OUTPUT CONTROL FOR STRESS PERIOD   12   TIME STEP   15
 
 SOLVING FOR HEAD 
                                                   Max.-Head-Change                         Max.-Flux-Residual
  Residual-Control   Outer-Iter.   Inner-Iter.     Column Row Layer    Maximum-Head-Change  Column Row Layer    Maximum-Flux-Residual          L2-NORM 
          0                 1           2             4    7     1      -0.3833846827E-01       4    7    1        -0.2028228933E+01      0.4290271647E+01
          0                 2           2             4    7     1       0.3729228505E-02       4    7    1         0.2028189684E+00      0.4290158660E+00
          0                 3           2             4    7     1      -0.2539472132E-03       4    7    1        -0.1419737106E-01      0.3003075761E-01
          0                 4           1             4    7     1       0.1010479415E-04       4    7    1         0.5806731149E-03      0.1228220688E-02

    ------------------------------------------------
       NWT REQUIRED            4 OUTER ITERATIONS 
       AND A TOTAL OF          7 INNER ITERATIONS.
    ------------------------------------------------

 NO OUTPUT CONTROL FOR STRESS PERIOD   12   TIME STEP   16
 
 SOLVING FOR HEAD 
                                                   Max.-Head-Change                         Max.-Flux-Residual
  Residual-Control   Outer-Iter.   Inner-Iter.     Column Row Layer    Maximum-Head-Change  Column Row Layer    Maximum-Flux-Residual          L2-NORM 
          0                 1           2             4    7     1      -0.3764923523E-01       4    7    1        -0.1992083329E+01      0.4192514795E+01
          0                 2           2             4    7     1       0.3662186697E-02       4    7    1         0.1992045223E+00      0.4192410670E+00
          0                 3           2             4    7     1      -0.2493818972E-03       4    7    1        -0.1394435865E-01      0.2934657995E-01
          0                 4           1             4    7     1       0.9923135695E-05       4    7    1         0.5703248858E-03      0.1200269493E-02

    ------------------------------------------------
       NWT REQUIRED            4 OUTER ITERATIONS 
       AND A TOTAL OF          7 INNER ITERATIONS.
    ------------------------------------------------

 NO OUTPUT CONTROL FOR STRESS PERIOD   12   TIME STEP   17
 
 SOLVING FOR HEAD 
                                                   Max.-Head-Change                         Max.-Flux-Residual
  Residual-Control   Outer-Iter.   Inner-Iter.     Column Row Layer    Maximum-Head-Change  Column Row Layer    Maximum-Flux-Residual          L2-NORM 
          0                 1           2             4    7     1      -0.3696675398E-01       4    7    1        -0.1956257334E+01      0.4097974179E+01
          0                 2           2             4    7     1       0.3595801655E-02       4    7    1         0.1956220376E+00      0.4097877447E+00
          0                 3           2             4    7     1      -0.2448613047E-03       4    7    1        -0.1369358353E-01      0.2868487063E-01
          0                 4           1             4    7     1       0.9743257338E-05       4    7    1         0.5600681759E-03      0.1173189575E-02

    ------------------------------------------------
       NWT REQUIRED            4 OUTER ITERATIONS 
       AND A TOTAL OF          7 INNER ITERATIONS.
    ------------------------------------------------

 NO OUTPUT CONTROL FOR STRESS PERIOD   12   TIME STEP   18
 
 SOLVING FOR HEAD 
                                                   Max.-Head-Change                         Max.-Flux-Residual
  Residual-Control   Outer-Iter.   Inner-Iter.     Column Row Layer    Maximum-Head-Change  Column Row Layer    Maximum-Flux-Residual          L2-NORM 
          0                 1           2             4    7     1      -0.3629180684E-01       4    7    1        -0.1920796319E+01      0.4006478715E+01
          0                 2           2             4    7     1       0.3530149466E-02       4    7    1         0.1920760507E+00      0.4006389415E+00
          0                 3           2             4    7     1      -0.2403906167E-03       4    7    1        -0.1344536325E-01      0.2804446396E-01
          0                 4           1             4    7     1       0.9565364703E-05       4    7    1         0.5499159513E-03      0.1146993207E-02

    ------------------------------------------------
       NWT REQUIRED            4 OUTER ITERATIONS 
       AND A TOTAL OF          7 INNER ITERATIONS.
    ------------------------------------------------

 NO OUTPUT CONTROL FOR STRESS PERIOD   12   TIME STEP   19
 
 SOLVING FOR HEAD 
                                                   Max.-Head-Change                         Max.-Flux-Residual
  Residual-Control   Outer-Iter.   Inner-Iter.     Column Row Layer    Maximum-Head-Change  Column Row Layer    Maximum-Flux-Residual          L2-NORM 
          0                 1           2             4    7     1      -0.3562510498E-01       4    7    1        -0.1885740842E+01      0.3917909914E+01
          0                 2           2             4    7     1       0.3465299300E-02       4    7    1         0.1885706168E+00      0.3917961290E+00
          0                 3           2             4    7     1      -0.2359745438E-03       4    7    1        -0.1319998169E-01      0.2742551273E-01
          0                 4           1             4    7     1       0.9389644986E-05       4    7    1         0.5398798487E-03      0.1121693545E-02

    ------------------------------------------------
       NWT REQUIRED            4 OUTER ITERATIONS 
       AND A TOTAL OF          7 INNER ITERATIONS.
    ------------------------------------------------

 NO OUTPUT CONTROL FOR STRESS PERIOD   12   TIME STEP   20
 
 SOLVING FOR HEAD 
                                                   Max.-Head-Change                         Max.-Flux-Residual
  Residual-Control   Outer-Iter.   Inner-Iter.     Column Row Layer    Maximum-Head-Change  Column Row Layer    Maximum-Flux-Residual          L2-NORM 
          0                 1           2             4    7     1      -0.3496646156E-01       4    7    1        -0.1851083130E+01      0.3832108162E+01
          0                 2           2             4    7     1       0.3401232954E-02       4    7    1         0.1851049586E+00      0.3832764235E+00
          0                 3           2             4    7     1      -0.2316118462E-03       4    7    1        -0.1295738444E-01      0.2682916343E-01
          0                 4           1             4    7     1       0.9216049374E-05       4    7    1         0.5299576078E-03      0.1097302760E-02

    ------------------------------------------------
       NWT REQUIRED            4 OUTER ITERATIONS 
       AND A TOTAL OF          7 INNER ITERATIONS.
    ------------------------------------------------

 NO OUTPUT CONTROL FOR STRESS PERIOD   12   TIME STEP   21
 
 SOLVING FOR HEAD 
                                                   Max.-Head-Change                         Max.-Flux-Residual
  Residual-Control   Outer-Iter.   Inner-Iter.     Column Row Layer    Maximum-Head-Change  Column Row Layer    Maximum-Flux-Residual          L2-NORM 
          0                 1           2             4    7     1      -0.3431648819E-01       4    7    1        -0.1816858144E+01      0.3748899151E+01
          0                 2           2             4    7     1       0.3338009998E-02       4    7    1         0.1816825715E+00      0.3748827411E+00
          0                 3           2             4    7     1      -0.2273065807E-03       4    7    1        -0.1271781618E-01      0.2624163073E-01
          0                 4           1             4    7     1       0.9044739274E-05       4    7    1         0.5201592685E-03      0.1073287324E-02

    ------------------------------------------------
       NWT REQUIRED            4 OUTER ITERATIONS 
       AND A TOTAL OF          7 INNER ITERATIONS.
    ------------------------------------------------

 NO OUTPUT CONTROL FOR STRESS PERIOD   12   TIME STEP   22
 
 SOLVING FOR HEAD 
                                                   Max.-Head-Change                         Max.-Flux-Residual
  Residual-Control   Outer-Iter.   Inner-Iter.     Column Row Layer    Maximum-Head-Change  Column Row Layer    Maximum-Flux-Residual          L2-NORM 
          0                 1           2             4    7     1      -0.3367573240E-01       4    7    1        -0.1783097588E+01      0.3668238662E+01
          0                 2           2             4    7     1       0.3275683602E-02       4    7    1         0.1783066258E+00      0.3668171757E+00
          0                 3           2             4    7     1      -0.2230623677E-03       4    7    1        -0.1248149883E-01      0.2567706348E-01
          0                 4           1             4    7     1       0.8875858136E-05       4    7    1         0.5104938798E-03      0.1050186986E-02

    ------------------------------------------------
       NWT REQUIRED            4 OUTER ITERATIONS 
       AND A TOTAL OF          7 INNER ITERATIONS.
    ------------------------------------------------

 NO OUTPUT CONTROL FOR STRESS PERIOD   12   TIME STEP   23
 
 SOLVING FOR HEAD 
                                                   Max.-Head-Change                         Max.-Flux-Residual
  Residual-Control   Outer-Iter.   Inner-Iter.     Column Row Layer    Maximum-Head-Change  Column Row Layer    Maximum-Flux-Residual          L2-NORM 
          0                 1           2             4    7     1      -0.3304414067E-01       4    7    1        -0.1749800096E+01      0.3590027692E+01
          0                 2           2             4    7     1       0.3214248587E-02       4    7    1         0.1749769844E+00      0.3589965383E+00
          0                 3           2             4    7     1      -0.2188788550E-03       4    7    1        -0.1224842282E-01      0.2512964618E-01
          0                 4           1             4    7     1       0.8709392146E-05       4    7    1         0.5009610586E-03      0.1027803015E-02

    ------------------------------------------------
       NWT REQUIRED            4 OUTER ITERATIONS 
       AND A TOTAL OF          7 INNER ITERATIONS.
    ------------------------------------------------

 NO OUTPUT CONTROL FOR STRESS PERIOD   12   TIME STEP   24
 
 SOLVING FOR HEAD 
                                                   Max.-Head-Change                         Max.-Flux-Residual
  Residual-Control   Outer-Iter.   Inner-Iter.     Column Row Layer    Maximum-Head-Change  Column Row Layer    Maximum-Flux-Residual          L2-NORM 
          0                 1           2             4    7     1      -0.3242190263E-01       4    7    1        -0.1716977771E+01      0.3514142114E+01
          0                 2           2             4    7     1       0.3153723396E-02       4    7    1         0.1716948577E+00      0.3514083662E+00
          0                 3           2             4    7     1      -0.2147572979E-03       4    7    1        -0.1201867284E-01      0.2459844765E-01
          0                 4           1             4    7     1       0.8545391497E-05       4    7    1         0.4915642673E-03      0.1006065082E-02

    ------------------------------------------------
       NWT REQUIRED            4 OUTER ITERATIONS 
       AND A TOTAL OF          7 INNER ITERATIONS.
    ------------------------------------------------

 NO OUTPUT CONTROL FOR STRESS PERIOD   12   TIME STEP   25
 
 SOLVING FOR HEAD 
                                                   Max.-Head-Change                         Max.-Flux-Residual
  Residual-Control   Outer-Iter.   Inner-Iter.     Column Row Layer    Maximum-Head-Change  Column Row Layer    Maximum-Flux-Residual          L2-NORM 
          0                 1           2             4    7     1      -0.3180917627E-01       4    7    1        -0.1684640445E+01      0.3440507607E+01
          0                 2           2             4    7     1       0.3094123396E-02       4    7    1         0.1684612287E+00      0.3440453259E+00
          0                 3           2             4    7     1      -0.2106987439E-03       4    7    1        -0.1179231774E-01      0.2408307302E-01
          0                 4           1             4    7     1       0.8383898328E-05       4    7    1         0.4823063573E-03      0.9849920329E-03

    ------------------------------------------------
       NWT REQUIRED            4 OUTER ITERATIONS 
       AND A TOTAL OF          7 INNER ITERATIONS.
    ------------------------------------------------

 NO OUTPUT CONTROL FOR STRESS PERIOD   12   TIME STEP   26
 
 SOLVING FOR HEAD 
                                                   Max.-Head-Change                         Max.-Flux-Residual
  Residual-Control   Outer-Iter.   Inner-Iter.     Column Row Layer    Maximum-Head-Change  Column Row Layer    Maximum-Flux-Residual          L2-NORM 
          0                 1           2             4    7     1      -0.3120634945E-01       4    7    1        -0.1652811186E+01      0.3369016800E+01
          0                 2           2             4    7     1       0.3035486311E-02       4    7    1         0.1652784038E+00      0.3368965852E+00
          0                 3           2             4    7     1      -0.2067057610E-03       4    7    1        -0.1156951895E-01      0.2358266790E-01
          0                 4           1             4    7     1       0.8225013720E-05       4    7    1         0.4731938700E-03      0.9645112905E-03

    ------------------------------------------------
       NWT REQUIRED            4 OUTER ITERATIONS 
       AND A TOTAL OF          7 INNER ITERATIONS.
    ------------------------------------------------

 NO OUTPUT CONTROL FOR STRESS PERIOD   12   TIME STEP   27
 
 SOLVING FOR HEAD 
                                                   Max.-Head-Change                         Max.-Flux-Residual
  Residual-Control   Outer-Iter.   Inner-Iter.     Column Row Layer    Maximum-Head-Change  Column Row Layer    Maximum-Flux-Residual          L2-NORM 
          0                 1           2             4    7     1      -0.3061322322E-01       4    7    1        -0.1621480351E+01      0.3299581144E+01
          0                 2           2             4    7     1       0.2977792789E-02       4    7    1         0.1621454188E+00      0.3299533569E+00
          0                 3           2             4    7     1      -0.2027770313E-03       4    7    1        -0.1135020897E-01      0.2309665098E-01
          0                 4           1             4    7     1       0.8068685636E-05       4    7    1         0.4642240845E-03      0.9446469704E-03

    ------------------------------------------------
       NWT REQUIRED            4 OUTER ITERATIONS 
       AND A TOTAL OF          7 INNER ITERATIONS.
    ------------------------------------------------

 NO OUTPUT CONTROL FOR STRESS PERIOD   12   TIME STEP   28
 
 SOLVING FOR HEAD 
                                                   Max.-Head-Change                         Max.-Flux-Residual
  Residual-Control   Outer-Iter.   Inner-Iter.     Column Row Layer    Maximum-Head-Change  Column Row Layer    Maximum-Flux-Residual          L2-NORM 
          0                 1           2             4    7     1      -0.3003013562E-01       4    7    1        -0.1590667374E+01      0.3232143146E+01
          0                 2           2             4    7     1       0.2921075710E-02       4    7    1         0.1590642171E+00      0.3232098429E+00
          0                 3           2             4    7     1      -0.1989147943E-03       4    7    1        -0.1113452384E-01      0.2262461424E-01
          0                 4           1             4    7     1       0.7915003644E-05       4    7    1         0.4554025445E-03      0.9253509894E-03

    ------------------------------------------------
       NWT REQUIRED            4 OUTER ITERATIONS 
       AND A TOTAL OF          7 INNER ITERATIONS.
    ------------------------------------------------

 NO OUTPUT CONTROL FOR STRESS PERIOD   12   TIME STEP   29
 
 SOLVING FOR HEAD 
                                                   Max.-Head-Change                         Max.-Flux-Residual
  Residual-Control   Outer-Iter.   Inner-Iter.     Column Row Layer    Maximum-Head-Change  Column Row Layer    Maximum-Flux-Residual          L2-NORM 
          0                 1           2             4    7     1      -0.2945711433E-01       4    7    1        -0.1560374907E+01      0.3166305347E+01
          0                 2           2             4    7     1       0.2865337767E-02       4    7    1         0.1560350636E+00      0.3166252144E+00
          0                 3           2             4    7     1      -0.1951192333E-03       4    7    1        -0.1092248213E-01      0.2216359956E-01
          0                 4           1             4    7     1       0.7763975114E-05       4    7    1         0.4467300253E-03      0.9065403496E-03

    ------------------------------------------------
       NWT REQUIRED            4 OUTER ITERATIONS 
       AND A TOTAL OF          7 INNER ITERATIONS.
    ------------------------------------------------

 NO OUTPUT CONTROL FOR STRESS PERIOD   12   TIME STEP   30



 STREAM LISTING     PERIOD     12   STEP       30

 LAYER ROW COL. STREAM  RCH.  FLOW INTO     FLOW TO   FLOW OUT OF   OVRLND.     DIRECT     STREAM       STREAM     STREAM     STREAM   STREAMBED  STREAMBED
                SEG.NO.  NO.  STRM. RCH.    AQUIFER    STRM. RCH.    RUNOFF     PRECIP       ET          HEAD       DEPTH      WIDTH   CONDCTNC.   GRADIENT

   1    1    1     1     1    1.9081E+01  2.1479E-01   1.8866E+01  0.000E+00  0.000E+00  0.000E+00  1.09413E+03  1.083E+00  1.169E+01  5.260E-02  1.361E+00
   1    2    2     1     2    1.8866E+01  3.3136E-01   1.8535E+01  0.000E+00  0.000E+00  0.000E+00  1.08914E+03  1.079E+00  1.161E+01  8.124E-02  1.360E+00
   1    3    3     1     3    1.8535E+01  2.8134E-01   1.8253E+01  0.000E+00  0.000E+00  0.000E+00  1.08349E+03  1.074E+00  1.151E+01  6.906E-02  1.358E+00
   1    3    4     1     4    1.8253E+01  2.5804E-01   1.7995E+01  0.000E+00  0.000E+00  0.000E+00  1.07848E+03  1.069E+00  1.143E+01  6.342E-02  1.356E+00
   1    4    5     2     1    1.5995E+01  3.0564E-01   1.5690E+01  0.000E+00  0.000E+00  0.000E+00  1.07285E+03  9.184E-01  1.200E+01  7.800E-02  1.306E+00
   1    5    6     2     2    1.5690E+01  2.3454E-01   1.5455E+01  0.000E+00  0.000E+00  0.000E+00  1.06742E+03  9.090E-01  1.200E+01  6.000E-02  1.303E+00
   1    6    6     2     3    1.5455E+01  2.3405E-01   1.5221E+01  0.000E+00  0.000E+00  0.000E+00  1.06269E+03  9.008E-01  1.200E+01  6.000E-02  1.300E+00
   1    7    6     2     4    1.5221E+01  2.3355E-01   1.4987E+01  0.000E+00  0.000E+00  0.000E+00  1.05797E+03  8.925E-01  1.200E+01  6.000E-02  1.297E+00
   1    8    6     2     5    1.4987E+01  2.3305E-01   1.4754E+01  0.000E+00  0.000E+00  0.000E+00  1.05324E+03  8.842E-01  1.200E+01  6.000E-02  1.295E+00
   1    3    5     3     1    2.0000E+00  2.8252E-01   1.7175E+00  0.000E+00  0.000E+00  0.000E+00  1.07555E+03  1.909E+00  9.636E+00  7.227E-02  1.955E+00
   1    3    6     3     2    1.7175E+00  2.4905E-01   1.4684E+00  0.000E+00  0.000E+00  0.000E+00  1.07264E+03  1.727E+00  8.909E+00  6.682E-02  1.864E+00
   1    3    7     3     3    1.4684E+00  1.9718E-01   1.2712E+00  0.000E+00  0.000E+00  0.000E+00  1.06987E+03  1.555E+00  8.218E+00  5.547E-02  1.777E+00
   1    4    8     3     4    1.2712E+00  2.2567E-01   1.0456E+00  0.000E+00  0.000E+00  0.000E+00  1.06682E+03  1.364E+00  7.455E+00  6.709E-02  1.682E+00
   1    5    8     3     5    1.0456E+00  1.5790E-01   8.8768E-01  0.000E+00  0.000E+00  0.000E+00  1.06362E+03  1.164E+00  6.655E+00  4.991E-02  1.582E+00
   1    6    8     3     6    8.8768E-01  5.5980E-02   8.3170E-01  0.000E+00  0.000E+00  0.000E+00  1.06158E+03  1.036E+00  6.145E+00  1.844E-02  1.518E+00
   1    5   10     4     1    1.0000E+01  9.0919E-02   9.9091E+00  0.000E+00  0.000E+00  0.000E+00  1.07836E+03  6.368E-01  1.000E+01  2.500E-02  1.212E+00
   1    5    9     4     2    9.9091E+00  1.8158E-01   9.7275E+00  0.000E+00  0.000E+00  0.000E+00  1.07154E+03  6.315E-01  1.000E+01  5.000E-02  1.211E+00
   1    6    8     4     3    9.7275E+00  1.2689E-01   9.6006E+00  0.000E+00  0.000E+00  0.000E+00  1.06381E+03  6.256E-01  1.000E+01  3.500E-02  1.209E+00
   1    6    8     5     1    1.0432E+01  2.2686E-01   1.0205E+01  0.000E+00  0.000E+00  0.000E+00  1.05868E+03  6.790E-01  1.542E+01  6.166E-02  1.226E+00
   1    7    7     5     2    1.0205E+01  2.7894E-01   9.9265E+00  0.000E+00  0.000E+00  0.000E+00  1.05417E+03  6.732E-01  1.519E+01  7.594E-02  1.224E+00
   1    8    7     5     3    9.9265E+00  1.9221E-01   9.7343E+00  0.000E+00  0.000E+00  0.000E+00  1.04992E+03  6.676E-01  1.497E+01  5.241E-02  1.223E+00
   1    8    6     5     4    9.7343E+00  1.3577E-01   9.5985E+00  0.000E+00  0.000E+00  0.000E+00  1.04691E+03  6.637E-01  1.482E+01  3.706E-02  1.221E+00
   1    9    6     6     1    2.4353E+01  2.5190E-01   2.4101E+01  0.000E+00  0.000E+00  0.000E+00  1.04393E+03  1.198E+00  1.200E+01  6.000E-02  1.399E+00
   1   10    7     6     2    2.4101E+01  2.5145E-01   2.3850E+01  0.000E+00  0.000E+00  0.000E+00  1.03937E+03  1.191E+00  1.200E+01  6.000E-02  1.397E+00
   1   11    7     6     3    2.3850E+01  2.5100E-01   2.3599E+01  0.000E+00  0.000E+00  0.000E+00  1.03482E+03  1.183E+00  1.200E+01  6.000E-02  1.394E+00
   1   12    7     6     4    2.3599E+01  2.5054E-01   2.3348E+01  0.000E+00  0.000E+00  0.000E+00  1.03027E+03  1.176E+00  1.200E+01  6.000E-02  1.392E+00
   1   13    7     6     5    2.3348E+01  8.3487E-04   2.3347E+01  0.000E+00  0.000E+00  0.000E+00  1.02708E+03  1.172E+00  1.200E+01  2.400E-02  1.160E-02
   1   14    9     7     1    1.5000E+02  1.3377E+00   1.4866E+02  0.000E+00  0.000E+00  0.000E+00  1.03987E+03  2.288E+00  5.529E+01  5.593E-01  7.972E-01
   1   13    8     7     2    1.4866E+02  1.8389E+00   1.4682E+02  0.000E+00  0.000E+00  0.000E+00  1.03478E+03  2.279E+00  5.526E+01  6.148E-01  9.971E-01
   1   13    7     7     3    1.4682E+02  1.4763E+00   1.4535E+02  0.000E+00  0.000E+00  0.000E+00  1.02969E+03  2.270E+00  5.522E+01  5.584E-01  8.812E-01
   1   13    6     8     1    1.6869E+02  9.2213E-01   1.6777E+02  0.000E+00  0.000E+00  0.000E+00  1.02482E+03  2.941E+00  4.264E+01  4.345E-01  7.074E-01
   1   13    5     8     2    1.6777E+02  1.7792E-01   1.6759E+02  0.000E+00  0.000E+00  0.000E+00  1.01856E+03  2.937E+00  4.259E+01  4.340E-01  1.367E-01
   1   13    4     8     3    1.6759E+02 -2.4371E+00   1.7003E+02  0.000E+00  0.000E+00  0.000E+00  1.01232E+03  2.944E+00  4.269E+01  4.351E+00 -1.867E-01
   1   13    3     8     4    1.7003E+02 -3.6585E+00   1.7369E+02  0.000E+00  0.000E+00  0.000E+00  1.00609E+03  2.964E+00  4.298E+01  4.380E+00 -2.784E-01
   1   13    2     8     5    1.7369E+02 -2.5957E+00   1.7629E+02  0.000E+00  0.000E+00  0.000E+00  9.99859E+02  2.984E+00  4.327E+01  4.410E+00 -1.962E-01
   1   13    1     8     6    1.7629E+02 -1.9970E+00   1.7828E+02  0.000E+00  0.000E+00  0.000E+00  9.94874E+02  2.999E+00  4.349E+01  2.659E+00 -2.504E-01
   1    8    6     9     1    0.0000E+00  0.0000E+00   0.0000E+00  0.000E+00  0.000E+00  0.000E+00  1.07875E+03  0.000E+00  4.000E+00  0.000E+00  1.000E+00
   1    8    5     9     2    0.0000E+00  0.0000E+00   0.0000E+00  0.000E+00  0.000E+00  0.000E+00  1.07825E+03  0.000E+00  4.000E+00  0.000E+00  1.000E+00





UNSATURATED ZONE PACKAGE VOLUMETRIC BUDGET FOR  TIME STEP    30 STRESS PERIOD   12
  ------------------------------------------------------------------------------



     CUMULATIVE VOLUMES      L**3       RATES FOR THIS TIME STEP      L**3/T
     ------------------                 ------------------------

           IN:                                      IN:
           ---                                      ---
        INFILTRATION =  1597345479.9558          INFILTRATION =           0.8475

          OUT:                                     OUT:
          ----                                     ----
              UZF ET =   430302687.7970                UZF ET =           0.7500
        UZF RECHARGE =   887717398.7402          UZF RECHARGE =       0.0000E+00

            IN - OUT =   279325393.4186              IN - OUT =       9.7500E-02

          STORAGE:                                 STORAGE:
          --------                                 --------
      STORAGE CHANGE =   279327498.6533        STORAGE CHANGE =       9.7500E-02

 PERCENT DISCREPANCY IS DIFFERENCE BETWEEN IN-OUT MINUS CHANGE IN STORAGE
 DIVIDED BY THE AVERAGE OF IN AND OUT TIMES 100

 PERCENT DISCREPANCY =          -0.00     PERCENT DISCREPANCY =           0.00






1
  VOLUMETRIC BUDGET FOR AGRICULTURAL FIELDS AT  END OF TIME STEP   30, STRESS PERIOD  12
  ------------------------------------------------------------------------------

     CUMULATIVE VOLUMES      L**3       RATES FOR THIS TIME STEP      L**3/T
     ------------------                 ------------------------

           IN:                                      IN:
           ---                                      ---
           AG WELLS      =  1024023808.0000             AG WELLS      =           0.0000
      DIVERSION SEGMENTS =   548718528.0000        DIVERSION SEGMENTS =           0.0000
           GW IRRIGATION =           0.0000             GW IRRIGATION =           0.0000
           SW IRRIGATION =           0.0000             SW IRRIGATION =           0.0000
        SYSTEM LOSSES GW =           0.0000          SYSTEM LOSSES GW =           0.0000
        SYSTEM LOSSES SW =           0.0000          SYSTEM LOSSES SW =           0.0000

                TOTAL IN =  1572742400.0000                  TOTAL IN =           0.0000

          OUT:                                     OUT:
          ----                                     ----
           AG WELLS      =           0.0000             AG WELLS      =           0.0000
      DIVERSION SEGMENTS =           0.0000        DIVERSION SEGMENTS =           0.0000
           GW IRRIGATION =  1024023808.0000             GW IRRIGATION =           0.0000
           SW IRRIGATION =   548729152.0000             SW IRRIGATION =           0.0000
        SYSTEM LOSSES GW =           0.0000          SYSTEM LOSSES GW =           0.0000
        SYSTEM LOSSES SW =           0.0000          SYSTEM LOSSES SW =           0.0000

               TOTAL OUT =  1572752896.0000                 TOTAL OUT =           0.0000

                IN - OUT =      -10496.0000                  IN - OUT =           0.0000

     PERCENT DISCREPANCY =          -0.00         PERCENT DISCREPANCY =           0.00



1
  VOLUMETRIC BUDGET FOR ENTIRE MODEL AT END OF TIME STEP   30, STRESS PERIOD  12
  ------------------------------------------------------------------------------

     CUMULATIVE VOLUMES      L**3       RATES FOR THIS TIME STEP      L**3/T
     ------------------                 ------------------------

           IN:                                      IN:
           ---                                      ---
             STORAGE     =  1098612352.0000               STORAGE     =           7.9050
       CONSTANT HEAD     =           0.0000         CONSTANT HEAD     =           0.0000
     HEAD DEP BOUNDS     =     8292002.0000       HEAD DEP BOUNDS     =           0.2859
      STREAM LEAKAGE     =   348774240.0000        STREAM LEAKAGE     =          11.4864
        UZF RECHARGE     =   887717248.0000          UZF RECHARGE     =           0.0000
               GW ET     =           0.0000                 GW ET     =           0.0000
     SURFACE LEAKAGE     =           0.0000       SURFACE LEAKAGE     =           0.0000
           AG WELLS      =           0.0000             AG WELLS      =           0.0000

                TOTAL IN =  2343395840.0000                  TOTAL IN =          19.6772

          OUT:                                     OUT:
          ----                                     ----
             STORAGE     =   996761152.0000               STORAGE     =           8.6992
       CONSTANT HEAD     =           0.0000         CONSTANT HEAD     =           0.0000
     HEAD DEP BOUNDS     =     8407043.0000       HEAD DEP BOUNDS     =           0.2898
      STREAM LEAKAGE     =   314143584.0000        STREAM LEAKAGE     =          10.6883
        UZF RECHARGE     =           0.0000          UZF RECHARGE     =           0.0000
               GW ET     =       56916.5898                 GW ET     =           0.0000
     SURFACE LEAKAGE     =           0.0000       SURFACE LEAKAGE     =           0.0000
           AG WELLS      =  1024023808.0000             AG WELLS      =           0.0000

               TOTAL OUT =  2343392512.0000                 TOTAL OUT =          19.6772

                IN - OUT =        3328.0000                  IN - OUT =       7.6294E-06

     PERCENT DISCREPANCY =           0.00         PERCENT DISCREPANCY =           0.00






         TIME SUMMARY AT END OF TIME STEP   30 IN STRESS PERIOD   12
                    SECONDS     MINUTES      HOURS       DAYS        YEARS
                    -----------------------------------------------------------
   TIME STEP LENGTH  87667.      1461.1      24.352      1.0147     2.77799E-03
 STRESS PERIOD TIME 2.63000E+06  43833.      730.56      30.440     8.33397E-02
         TOTAL TIME 2.90163E+07 4.83606E+05  8060.1      335.84     0.91947    
1
1
                            STRESS PERIOD NO.   13, LENGTH =   2630000.    
                            -----------------------------------------------

                              NUMBER OF TIME STEPS =    30

                               MULTIPLIER FOR DELT =     1.000

                            INITIAL TIME STEP SIZE =   87666.66    

 REUSING NON-PARAMETER GHB CELLS FROM LAST STRESS PERIOD

      2 GHB CELLS

 REUSING STREAM SEGMENT DATA FROM LAST STRESS PERIOD



            AREAL INFILTRATION RATE
 READING ON UNIT   19 WITH FORMAT: (FREE)              

            1           2           3           4           5           6           7           8           9          10
 ........................................................................................................................
   1   1.0000E-10  2.0000E-10   0.000       0.000       0.000       0.000       0.000       0.000       0.000       0.000    
   2   2.0000E-10  1.0000E-10  2.0000E-10   0.000       0.000      8.0000E-10  8.0000E-10  5.0000E-10   0.000       0.000    
   3    0.000      5.0000E-10  1.0000E-10  1.0000E-10  8.0000E-10  8.0000E-10  5.0000E-10  5.0000E-10   0.000       0.000    
   4   8.0000E-10  5.0000E-10  1.0000E-10  1.0000E-10  1.0000E-10  1.0000E-10  1.0000E-10  1.0000E-10  2.0000E-10   0.000    
   5   8.0000E-10  5.0000E-10  1.0000E-10  1.0000E-10  1.0000E-10  1.0000E-10  1.0000E-10  1.0000E-10  1.0000E-10  1.0000E-10
   6   8.0000E-10  5.0000E-10  5.0000E-10  2.0000E-10  2.0000E-10  1.0000E-10  1.0000E-10  1.0000E-10  1.0000E-10  5.0000E-10
   7   8.0000E-10  5.0000E-10  5.0000E-10  2.0000E-10  2.0000E-10  1.0000E-10  1.0000E-10  2.0000E-10  2.0000E-10   0.000    
   8    0.000      5.0000E-10  5.0000E-10  2.0000E-10  2.0000E-10  1.0000E-10  1.0000E-10  2.0000E-10  5.0000E-10   0.000    
   9    0.000      5.0000E-10  5.0000E-10  2.0000E-10  2.0000E-10  1.0000E-10  1.0000E-10  2.0000E-10  5.0000E-10   0.000    
  10    0.000      5.0000E-10  5.0000E-10  2.0000E-10  2.0000E-10  1.0000E-10  1.0000E-10  2.0000E-10  5.0000E-10  8.0000E-10
  11    0.000      1.0000E-10  1.0000E-10  1.0000E-10  1.0000E-10  1.0000E-10  1.0000E-10  2.0000E-10  5.0000E-10   0.000    
  12   1.0000E-10  1.0000E-10  1.0000E-10  1.0000E-10  1.0000E-10  1.0000E-10  1.0000E-10  1.0000E-10  2.0000E-10   0.000    
  13   1.0000E-10  1.0000E-10  2.0000E-10  2.0000E-10  2.0000E-10  2.0000E-10  2.0000E-10  1.0000E-10  1.0000E-10   0.000    
  14    0.000      2.0000E-10  5.0000E-10  5.0000E-10  5.0000E-10  5.0000E-10  5.0000E-10  2.0000E-10  1.0000E-10   0.000    
  15    0.000       0.000      8.0000E-10  8.0000E-10  8.0000E-10  8.0000E-10   0.000       0.000       0.000       0.000    

                  ET RATE =  5.000000E-10

 USING ET EXTINCTION DEPTH FROM PREVIOUS STRESS PERIOD. CURRENT PERIOD IS:      13

 USING EXTINCTION WATER CONTENT FROM PREVIOUS STRESS PERIOD. CURRENT PERIOD IS:      13

 USING AIR ENTRY PRESSURE FROM PREVIOUS STRESS PERIOD. CURRENT PERIOD IS:      13

 USING ROOT PRESSURE HEAD FROM PREVIOUS STRESS PERIOD. CURRENT PERIOD IS:      13

 USING ROOT ACTIVITY FROM PREVIOUS STRESS PERIOD. CURRENT PERIOD IS:      13

 PROCESSING AG STRESS PERIOD DATA

 READING AG STRESS PERIOD DATA

 READING IRRIGATION SEGMENT

 READING IRRIGATION WELL

 READING SUPPLEMENTAL WELL

 END PROCESSING AG STRESS PERIOD DATA OPTIONS
 
 SOLVING FOR HEAD 
                                                   Max.-Head-Change                         Max.-Flux-Residual
  Residual-Control   Outer-Iter.   Inner-Iter.     Column Row Layer    Maximum-Head-Change  Column Row Layer    Maximum-Flux-Residual          L2-NORM 
          0                 1           2             4    7     1      -0.2889389969E-01       4    7    1        -0.1530589514E+01      0.3102231648E+01
          0                 2           2             4    7     1       0.2810553704E-02       4    7    1         0.1530566149E+00      0.3102030707E+00
          0                 3           2             4    7     1      -0.1913886285E-03       4    7    1        -0.1071398977E-01      0.2171333732E-01
          0                 4           1             4    7     1       0.7615530967E-05       4    7    1         0.4382026980E-03      0.8879964992E-03

    ------------------------------------------------
       NWT REQUIRED            4 OUTER ITERATIONS 
       AND A TOTAL OF          7 INNER ITERATIONS.
    ------------------------------------------------

 NO OUTPUT CONTROL FOR STRESS PERIOD   13   TIME STEP    1
 
 SOLVING FOR HEAD 
                                                   Max.-Head-Change                         Max.-Flux-Residual
  Residual-Control   Outer-Iter.   Inner-Iter.     Column Row Layer    Maximum-Head-Change  Column Row Layer    Maximum-Flux-Residual          L2-NORM 
          0                 1           2             4    7     1      -0.2834103677E-01       4    7    1        -0.1501342344E+01      0.3040127586E+01
          0                 2           2             4    7     1       0.2756776536E-02       4    7    1         0.1501319858E+00      0.3039995807E+00
          0                 3           2             4    7     1      -0.1877265896E-03       4    7    1        -0.1050926480E-01      0.2127903076E-01
          0                 4           1             4    7     1       0.7469815115E-05       4    7    1         0.4298294346E-03      0.8702546690E-03

    ------------------------------------------------
       NWT REQUIRED            4 OUTER ITERATIONS 
       AND A TOTAL OF          7 INNER ITERATIONS.
    ------------------------------------------------

 NO OUTPUT CONTROL FOR STRESS PERIOD   13   TIME STEP    2
 
 SOLVING FOR HEAD 
                                                   Max.-Head-Change                         Max.-Flux-Residual
  Residual-Control   Outer-Iter.   Inner-Iter.     Column Row Layer    Maximum-Head-Change  Column Row Layer    Maximum-Flux-Residual          L2-NORM 
          0                 1           2             4    7     1      -0.2779792944E-01       4    7    1        -0.1472602177E+01      0.2979697765E+01
          0                 2           2             4    7     1       0.2703948281E-02       4    7    1         0.1472580542E+00      0.2979579094E+00
          0                 3           2             4    7     1      -0.1841291691E-03       4    7    1        -0.1030808873E-01      0.2085625002E-01
          0                 4           1             4    7     1       0.7326670522E-05       4    7    1         0.4216013244E-03      0.8530051454E-03

    ------------------------------------------------
       NWT REQUIRED            4 OUTER ITERATIONS 
       AND A TOTAL OF          7 INNER ITERATIONS.
    ------------------------------------------------

 NO OUTPUT CONTROL FOR STRESS PERIOD   13   TIME STEP    3
 
 SOLVING FOR HEAD 
                                                   Max.-Head-Change                         Max.-Flux-Residual
  Residual-Control   Outer-Iter.   Inner-Iter.     Column Row Layer    Maximum-Head-Change  Column Row Layer    Maximum-Flux-Residual          L2-NORM 
          0                 1           2             4    7     1      -0.2726480323E-01       4    7    1        -0.1444382714E+01      0.2920912248E+01
          0                 2           2             4    7     1       0.2652090874E-02       4    7    1         0.1444361904E+00      0.2920805038E+00
          0                 3           2             4    7     1      -0.1805978598E-03       4    7    1        -0.1011055738E-01      0.2044490634E-01
          0                 4           1             4    7     1       0.7186156365E-05       4    7    1         0.4135222812E-03      0.8361635336E-03

    ------------------------------------------------
       NWT REQUIRED            4 OUTER ITERATIONS 
       AND A TOTAL OF          7 INNER ITERATIONS.
    ------------------------------------------------

 NO OUTPUT CONTROL FOR STRESS PERIOD   13   TIME STEP    4
 
 SOLVING FOR HEAD 
                                                   Max.-Head-Change                         Max.-Flux-Residual
  Residual-Control   Outer-Iter.   Inner-Iter.     Column Row Layer    Maximum-Head-Change  Column Row Layer    Maximum-Flux-Residual          L2-NORM 
          0                 1           2             4    7     1      -0.2674159315E-01       4    7    1        -0.1416680777E+01      0.2863727619E+01
          0                 2           2             4    7     1       0.2601197995E-02       4    7    1         0.1416660764E+00      0.2863631236E+00
          0                 3           2             4    7     1      -0.1771322317E-03       4    7    1        -0.9916648569E-02      0.2004480359E-01
          0                 4           1             4    7     1       0.7048255834E-05       4    7    1         0.4055914048E-03      0.8198083510E-03

    ------------------------------------------------
       NWT REQUIRED            4 OUTER ITERATIONS 
       AND A TOTAL OF          7 INNER ITERATIONS.
    ------------------------------------------------

 NO OUTPUT CONTROL FOR STRESS PERIOD   13   TIME STEP    5
 
 SOLVING FOR HEAD 
                                                   Max.-Head-Change                         Max.-Flux-Residual
  Residual-Control   Outer-Iter.   Inner-Iter.     Column Row Layer    Maximum-Head-Change  Column Row Layer    Maximum-Flux-Residual          L2-NORM 
          0                 1           2             4    7     1      -0.2622821686E-01       4    7    1        -0.1389492997E+01      0.2808067931E+01
          0                 2           2             4    7     1       0.2551261633E-02       4    7    1         0.1389473755E+00      0.2807980637E+00
          0                 3           2             4    7     1      -0.1737317390E-03       4    7    1        -0.9726338684E-02      0.1965525171E-01
          0                 4           1             4    7     1       0.6912946826E-05       4    7    1         0.3978077145E-03      0.8038255312E-03

    ------------------------------------------------
       NWT REQUIRED            4 OUTER ITERATIONS 
       AND A TOTAL OF          7 INNER ITERATIONS.
    ------------------------------------------------

 NO OUTPUT CONTROL FOR STRESS PERIOD   13   TIME STEP    6
 
 SOLVING FOR HEAD 
                                                   Max.-Head-Change                         Max.-Flux-Residual
  Residual-Control   Outer-Iter.   Inner-Iter.     Column Row Layer    Maximum-Head-Change  Column Row Layer    Maximum-Flux-Residual          L2-NORM 
          0                 1           2             4    7     1      -0.2572458509E-01       4    7    1        -0.1362815104E+01      0.2753889410E+01
          0                 2           2             4    7     1       0.2502273109E-02       4    7    1         0.1362796606E+00      0.2753810676E+00
          0                 3           2             4    7     1      -0.1703957912E-03       4    7    1        -0.9539597857E-02      0.1927619461E-01
          0                 4           1             4    7     1       0.6780206545E-05       4    7    1         0.3901700020E-03      0.7883760123E-03

    ------------------------------------------------
       NWT REQUIRED            4 OUTER ITERATIONS 
       AND A TOTAL OF          7 INNER ITERATIONS.
    ------------------------------------------------

 NO OUTPUT CONTROL FOR STRESS PERIOD   13   TIME STEP    7
 
 SOLVING FOR HEAD 
                                                   Max.-Head-Change                         Max.-Flux-Residual
  Residual-Control   Outer-Iter.   Inner-Iter.     Column Row Layer    Maximum-Head-Change  Column Row Layer    Maximum-Flux-Residual          L2-NORM 
          0                 1           2             4    7     1      -0.2523086492E-01       4    7    1        -0.1336657335E+01      0.2701135727E+01
          0                 2           2             4    7     1       0.2454248673E-02       4    7    1         0.1336639555E+00      0.2701064120E+00
          0                 3           2             4    7     1      -0.1671254953E-03       4    7    1        -0.9356497752E-02      0.1890700721E-01
          0                 4           1             4    7     1       0.6650078509E-05       4    7    1         0.3826812190E-03      0.7732666050E-03

    ------------------------------------------------
       NWT REQUIRED            4 OUTER ITERATIONS 
       AND A TOTAL OF          7 INNER ITERATIONS.
    ------------------------------------------------

 NO OUTPUT CONTROL FOR STRESS PERIOD   13   TIME STEP    8
 
 SOLVING FOR HEAD 
                                                   Max.-Head-Change                         Max.-Flux-Residual
  Residual-Control   Outer-Iter.   Inner-Iter.     Column Row Layer    Maximum-Head-Change  Column Row Layer    Maximum-Flux-Residual          L2-NORM 
          0                 1           2             4    7     1      -0.2474666106E-01       4    7    1        -0.1310998621E+01      0.2649754866E+01
          0                 2           2             4    7     1       0.2407142405E-02       4    7    1         0.1310981533E+00      0.2646499656E+00
          0                 3           2             4    7     1      -0.1639177228E-03       4    7    1        -0.9176890875E-02      0.1852508969E-01
          0                 4           1             4    7     1       0.6522438380E-05       4    7    1         0.3753352871E-03      0.7576333348E-03

    ------------------------------------------------
       NWT REQUIRED            4 OUTER ITERATIONS 
       AND A TOTAL OF          7 INNER ITERATIONS.
    ------------------------------------------------

 NO OUTPUT CONTROL FOR STRESS PERIOD   13   TIME STEP    9
 
 SOLVING FOR HEAD 
                                                   Max.-Head-Change                         Max.-Flux-Residual
  Residual-Control   Outer-Iter.   Inner-Iter.     Column Row Layer    Maximum-Head-Change  Column Row Layer    Maximum-Flux-Residual          L2-NORM 
          0                 1           2             4    7     1      -0.2427188224E-01       4    7    1        -0.1285833731E+01      0.2599974188E+01
          0                 2           2             4    7     1       0.2360967844E-02       4    7    1         0.1285817311E+00      0.2599916117E+00
          0                 3           2             4    7     1      -0.1607733963E-03       4    7    1        -0.9000740596E-02      0.1819906017E-01
          0                 4           1             4    7     1       0.6397322540E-05       4    7    1         0.3681307180E-03      0.7443279475E-03

    ------------------------------------------------
       NWT REQUIRED            4 OUTER ITERATIONS 
       AND A TOTAL OF          7 INNER ITERATIONS.
    ------------------------------------------------

 NO OUTPUT CONTROL FOR STRESS PERIOD   13   TIME STEP   10
 
 SOLVING FOR HEAD 
                                                   Max.-Head-Change                         Max.-Flux-Residual
  Residual-Control   Outer-Iter.   Inner-Iter.     Column Row Layer    Maximum-Head-Change  Column Row Layer    Maximum-Flux-Residual          L2-NORM 
          0                 1           2             4    7     1      -0.2380666391E-01       4    7    1        -0.1261171599E+01      0.2551524342E+01
          0                 2           2             4    7     1       0.2315715747E-02       4    7    1         0.1261155823E+00      0.2551471186E+00
          0                 3           2             4    7     1      -0.1576918871E-03       4    7    1        -0.8828109515E-02      0.1785997431E-01
          0                 4           1             4    7     1       0.6274706349E-05       4    7    1         0.3610701062E-03      0.7314283575E-03

    ------------------------------------------------
       NWT REQUIRED            4 OUTER ITERATIONS 
       AND A TOTAL OF          7 INNER ITERATIONS.
    ------------------------------------------------

 NO OUTPUT CONTROL FOR STRESS PERIOD   13   TIME STEP   11
 
 SOLVING FOR HEAD 
                                                   Max.-Head-Change                         Max.-Flux-Residual
  Residual-Control   Outer-Iter.   Inner-Iter.     Column Row Layer    Maximum-Head-Change  Column Row Layer    Maximum-Flux-Residual          L2-NORM 
          0                 1           2             4    7     1      -0.2335060206E-01       4    7    1        -0.1236990718E+01      0.2504288642E+01
          0                 2           2             4    7     1       0.2271354291E-02       4    7    1         0.1236975562E+00      0.2504240457E+00
          0                 3           2             4    7     1      -0.1546710275E-03       4    7    1        -0.8658847020E-02      0.1752942003E-01
          0                 4           1             4    7     1       0.6154503924E-05       4    7    1         0.3541472799E-03      0.7169474324E-03

    ------------------------------------------------
       NWT REQUIRED            4 OUTER ITERATIONS 
       AND A TOTAL OF          7 INNER ITERATIONS.
    ------------------------------------------------

 NO OUTPUT CONTROL FOR STRESS PERIOD   13   TIME STEP   12
 
 SOLVING FOR HEAD 
                                                   Max.-Head-Change                         Max.-Flux-Residual
  Residual-Control   Outer-Iter.   Inner-Iter.     Column Row Layer    Maximum-Head-Change  Column Row Layer    Maximum-Flux-Residual          L2-NORM 
          0                 1           2             4    7     1      -0.2290383242E-01       4    7    1        -0.1213299466E+01      0.2458231016E+01
          0                 2           2             4    7     1       0.2227896677E-02       4    7    1         0.1213284906E+00      0.2458184757E+00
          0                 3           2             4    7     1      -0.1517117165E-03       4    7    1        -0.8493011803E-02      0.1720686214E-01
          0                 4           1             4    7     1       0.6036750033E-05       4    7    1         0.3473646157E-03      0.7037429612E-03

    ------------------------------------------------
       NWT REQUIRED            4 OUTER ITERATIONS 
       AND A TOTAL OF          7 INNER ITERATIONS.
    ------------------------------------------------

 NO OUTPUT CONTROL FOR STRESS PERIOD   13   TIME STEP   13
 
 SOLVING FOR HEAD 
                                                   Max.-Head-Change                         Max.-Flux-Residual
  Residual-Control   Outer-Iter.   Inner-Iter.     Column Row Layer    Maximum-Head-Change  Column Row Layer    Maximum-Flux-Residual          L2-NORM 
          0                 1           2             4    7     1      -0.2246620874E-01       4    7    1        -0.1190090016E+01      0.2413311224E+01
          0                 2           2             4    7     1       0.2185328683E-02       4    7    1         0.1190076031E+00      0.2413271327E+00
          0                 3           2             4    7     1      -0.1488129854E-03       4    7    1        -0.8330549047E-02      0.1689269331E-01
          0                 4           1             4    7     1       0.5921406914E-05       4    7    1         0.3407198785E-03      0.6909141276E-03

    ------------------------------------------------
       NWT REQUIRED            4 OUTER ITERATIONS 
       AND A TOTAL OF          7 INNER ITERATIONS.
    ------------------------------------------------

 NO OUTPUT CONTROL FOR STRESS PERIOD   13   TIME STEP   14
 
 SOLVING FOR HEAD 
                                                   Max.-Head-Change                         Max.-Flux-Residual
  Residual-Control   Outer-Iter.   Inner-Iter.     Column Row Layer    Maximum-Head-Change  Column Row Layer    Maximum-Flux-Residual          L2-NORM 
          0                 1           2             4    7     1      -0.2203730443E-01       4    7    1        -0.1167339927E+01      0.2369487376E+01
          0                 2           2             4    7     1       0.2143608827E-02       4    7    1         0.1167326495E+00      0.2369450751E+00
          0                 3           2             4    7     1      -0.1459720084E-03       4    7    1        -0.8171301700E-02      0.1658595787E-01
          0                 4           1             4    7     1       0.5808361511E-05       4    7    1         0.3342066366E-03      0.6783782881E-03

    ------------------------------------------------
       NWT REQUIRED            4 OUTER ITERATIONS 
       AND A TOTAL OF          7 INNER ITERATIONS.
    ------------------------------------------------

 NO OUTPUT CONTROL FOR STRESS PERIOD   13   TIME STEP   15
 
 SOLVING FOR HEAD 
                                                   Max.-Head-Change                         Max.-Flux-Residual
  Residual-Control   Outer-Iter.   Inner-Iter.     Column Row Layer    Maximum-Head-Change  Column Row Layer    Maximum-Flux-Residual          L2-NORM 
          0                 1           2             4    7     1      -0.2161725089E-01       4    7    1        -0.1145056800E+01      0.2326731937E+01
          0                 2           2             4    7     1       0.2102749952E-02       4    7    1         0.1145043899E+00      0.2326699730E+00
          0                 3           2             4    7     1      -0.1431896632E-03       4    7    1        -0.8015322975E-02      0.1628673435E-01
          0                 4           1             4    7     1       0.5697649745E-05       4    7    1         0.3278271172E-03      0.6661196337E-03

    ------------------------------------------------
       NWT REQUIRED            4 OUTER ITERATIONS 
       AND A TOTAL OF          7 INNER ITERATIONS.
    ------------------------------------------------

 NO OUTPUT CONTROL FOR STRESS PERIOD   13   TIME STEP   16
 
 SOLVING FOR HEAD 
                                                   Max.-Head-Change                         Max.-Flux-Residual
  Residual-Control   Outer-Iter.   Inner-Iter.     Column Row Layer    Maximum-Head-Change  Column Row Layer    Maximum-Flux-Residual          L2-NORM 
          0                 1           2             4    7     1      -0.2120588842E-01       4    7    1        -0.1123232582E+01      0.2285011387E+01
          0                 2           2             4    7     1       0.2062736357E-02       4    7    1         0.1123220192E+00      0.2284981761E+00
          0                 3           2             4    7     1      -0.1404648779E-03       4    7    1        -0.7862556455E-02      0.1599470688E-01
          0                 4           1             4    7     1       0.5589227867E-05       4    7    1         0.3215789438E-03      0.6541988038E-03

    ------------------------------------------------
       NWT REQUIRED            4 OUTER ITERATIONS 
       AND A TOTAL OF          7 INNER ITERATIONS.
    ------------------------------------------------

 NO OUTPUT CONTROL FOR STRESS PERIOD   13   TIME STEP   17
 
 SOLVING FOR HEAD 
                                                   Max.-Head-Change                         Max.-Flux-Residual
  Residual-Control   Outer-Iter.   Inner-Iter.     Column Row Layer    Maximum-Head-Change  Column Row Layer    Maximum-Flux-Residual          L2-NORM 
          0                 1           2             4    7     1      -0.2080305315E-01       4    7    1        -0.1101859004E+01      0.2244287162E+01
          0                 2           2             4    7     1       0.2023552195E-02       4    7    1         0.1101847104E+00      0.2244260047E+00
          0                 3           2             4    7     1      -0.1377965747E-03       4    7    1        -0.7712944316E-02      0.1570967236E-01
          0                 4           1             4    7     1       0.5483053740E-05       4    7    1         0.3154598101E-03      0.6425201075E-03

    ------------------------------------------------
       NWT REQUIRED            4 OUTER ITERATIONS 
       AND A TOTAL OF          7 INNER ITERATIONS.
    ------------------------------------------------

 NO OUTPUT CONTROL FOR STRESS PERIOD   13   TIME STEP   18
 
 SOLVING FOR HEAD 
                                                   Max.-Head-Change                         Max.-Flux-Residual
  Residual-Control   Outer-Iter.   Inner-Iter.     Column Row Layer    Maximum-Head-Change  Column Row Layer    Maximum-Flux-Residual          L2-NORM 
          0                 1           2             4    7     1      -0.2040858379E-01       4    7    1        -0.1080927562E+01      0.2204534818E+01
          0                 2           2             4    7     1       0.1985181780E-02       4    7    1         0.1080916134E+00      0.2204509821E+00
          0                 3           1             4    7     1      -0.1351836845E-03       4    7    1        -0.7566427017E-02      0.1543145009E-01
          0                 4           1             4    7     1       0.5379084077E-05       4    7    1         0.3094672550E-03      0.6311361912E-03

    ------------------------------------------------
       NWT REQUIRED            4 OUTER ITERATIONS 
       AND A TOTAL OF          6 INNER ITERATIONS.
    ------------------------------------------------

 NO OUTPUT CONTROL FOR STRESS PERIOD   13   TIME STEP   19
 
 SOLVING FOR HEAD 
                                                   Max.-Head-Change                         Max.-Flux-Residual
  Residual-Control   Outer-Iter.   Inner-Iter.     Column Row Layer    Maximum-Head-Change  Column Row Layer    Maximum-Flux-Residual          L2-NORM 
          0                 1           2             4    7     1      -0.2002231539E-01       4    7    1        -0.1060429894E+01      0.2165709885E+01
          0                 2           2             4    7     1       0.1947609173E-02       4    7    1         0.1060418919E+00      0.2165601699E+00
          0                 3           1             4    7     1      -0.1326252254E-03       4    7    1        -0.7422946021E-02      0.1516352193E-01
          0                 4           1             4    7     1       0.5277280654E-05       4    7    1         0.3035988736E-03      0.6201806536E-03

    ------------------------------------------------
       NWT REQUIRED            4 OUTER ITERATIONS 
       AND A TOTAL OF          6 INNER ITERATIONS.
    ------------------------------------------------

 NO OUTPUT CONTROL FOR STRESS PERIOD   13   TIME STEP   20
 
 SOLVING FOR HEAD 
                                                   Max.-Head-Change                         Max.-Flux-Residual
  Residual-Control   Outer-Iter.   Inner-Iter.     Column Row Layer    Maximum-Head-Change  Column Row Layer    Maximum-Flux-Residual          L2-NORM 
          0                 1           2             4    7     1      -0.1964408279E-01       4    7    1        -0.1040357448E+01      0.2127805341E+01
          0                 2           2             4    7     1       0.1910814578E-02       4    7    1         0.1040346907E+00      0.2126539282E+00
          0                 3           1             4    7     1      -0.1301195408E-03       4    7    1        -0.7282441478E-02      0.1488566737E-01
          0                 4           1             4    7     1       0.5177576929E-05       4    7    1         0.2978522243E-03      0.6088114383E-03

    ------------------------------------------------
       NWT REQUIRED            4 OUTER ITERATIONS 
       AND A TOTAL OF          6 INNER ITERATIONS.
    ------------------------------------------------

 NO OUTPUT CONTROL FOR STRESS PERIOD   13   TIME STEP   21
 
 SOLVING FOR HEAD 
                                                   Max.-Head-Change                         Max.-Flux-Residual
  Residual-Control   Outer-Iter.   Inner-Iter.     Column Row Layer    Maximum-Head-Change  Column Row Layer    Maximum-Flux-Residual          L2-NORM 
          0                 1           2             4    7     1      -0.1927374212E-01       4    7    1        -0.1020701841E+01      0.2090894935E+01
          0                 2           2             4    7     1       0.1874794562E-02       4    7    1         0.1020691718E+00      0.2090875601E+00
          0                 3           1             4    7     1      -0.1276667052E-03       4    7    1        -0.7144854696E-02      0.1463603110E-01
          0                 4           1             4    7     1       0.5079976124E-05       4    7    1         0.2922249057E-03      0.5986100892E-03

    ------------------------------------------------
       NWT REQUIRED            4 OUTER ITERATIONS 
       AND A TOTAL OF          6 INNER ITERATIONS.
    ------------------------------------------------

 NO OUTPUT CONTROL FOR STRESS PERIOD   13   TIME STEP   22
 
 SOLVING FOR HEAD 
                                                   Max.-Head-Change                         Max.-Flux-Residual
  Residual-Control   Outer-Iter.   Inner-Iter.     Column Row Layer    Maximum-Head-Change  Column Row Layer    Maximum-Flux-Residual          L2-NORM 
          0                 1           2             4    7     1      -0.1891139335E-01       4    7    1        -0.1001469922E+01      0.2054846470E+01
          0                 2           2             4    7     1       0.1839667512E-02       4    7    1         0.1001460200E+00      0.2055589297E+00
          0                 3           1             4    7     1      -0.1252746771E-03       4    7    1        -0.7010233592E-02      0.1438904326E-01
          0                 4           1             4    7     1       0.4984795071E-05       4    7    1         0.2867189046E-03      0.5885101725E-03

    ------------------------------------------------
       NWT REQUIRED            4 OUTER ITERATIONS 
       AND A TOTAL OF          6 INNER ITERATIONS.
    ------------------------------------------------

 NO OUTPUT CONTROL FOR STRESS PERIOD   13   TIME STEP   23
 
 SOLVING FOR HEAD 
                                                   Max.-Head-Change                         Max.-Flux-Residual
  Residual-Control   Outer-Iter.   Inner-Iter.     Column Row Layer    Maximum-Head-Change  Column Row Layer    Maximum-Flux-Residual          L2-NORM 
          0                 1           2             4    7     1      -0.1855617231E-01       4    7    1        -0.9826313673E+00      0.2019552799E+01
          0                 2           2             4    7     1       0.1804995749E-02       4    7    1         0.9826220235E-01      0.2019536259E+00
          0                 3           1             4    7     1      -0.1229136536E-03       4    7    1        -0.6878365979E-02      0.1413667122E-01
          0                 4           1             4    7     1       0.4890848186E-05       4    7    1         0.2813255287E-03      0.5781779848E-03

    ------------------------------------------------
       NWT REQUIRED            4 OUTER ITERATIONS 
       AND A TOTAL OF          6 INNER ITERATIONS.
    ------------------------------------------------

 NO OUTPUT CONTROL FOR STRESS PERIOD   13   TIME STEP   24
 
 SOLVING FOR HEAD 
                                                   Max.-Head-Change                         Max.-Flux-Residual
  Residual-Control   Outer-Iter.   Inner-Iter.     Column Row Layer    Maximum-Head-Change  Column Row Layer    Maximum-Flux-Residual          L2-NORM 
          0                 1           2             4    7     1      -0.1820832009E-01       4    7    1        -0.9641750751E+00      0.1985039274E+01
          0                 2           2             4    7     1       0.1771159755E-02       4    7    1         0.9641660976E-01      0.1985024069E+00
          0                 3           1             4    7     1      -0.1206095425E-03       4    7    1        -0.6749174094E-02      0.1428651052E-01
          0                 4           1             3   13     1       0.5432768295E-04       3   13    1         0.3397365792E-02      0.3445734021E-02

    ------------------------------------------------
       NWT REQUIRED            4 OUTER ITERATIONS 
       AND A TOTAL OF          6 INNER ITERATIONS.
    ------------------------------------------------

 NO OUTPUT CONTROL FOR STRESS PERIOD   13   TIME STEP   25
 
 SOLVING FOR HEAD 
                                                   Max.-Head-Change                         Max.-Flux-Residual
  Residual-Control   Outer-Iter.   Inner-Iter.     Column Row Layer    Maximum-Head-Change  Column Row Layer    Maximum-Flux-Residual          L2-NORM 
          0                 1           2             4    7     1      -0.1786757931E-01       4    7    1        -0.9460945135E+00      0.1951304919E+01
          0                 2           2             4    7     1       0.1738015468E-02       4    7    1         0.9460858878E-01      0.1951041084E+00
          0                 3           1             4    7     1      -0.1183525342E-03       4    7    1        -0.6622612246E-02      0.1365724038E-01
          0                 4           1             4    7     1       0.4709356662E-05       4    7    1         0.2708651703E-03      0.5586440977E-03

    ------------------------------------------------
       NWT REQUIRED            4 OUTER ITERATIONS 
       AND A TOTAL OF          6 INNER ITERATIONS.
    ------------------------------------------------

 NO OUTPUT CONTROL FOR STRESS PERIOD   13   TIME STEP   26
 
 SOLVING FOR HEAD 
                                                   Max.-Head-Change                         Max.-Flux-Residual
  Residual-Control   Outer-Iter.   Inner-Iter.     Column Row Layer    Maximum-Head-Change  Column Row Layer    Maximum-Flux-Residual          L2-NORM 
          0                 1           2             4    7     1      -0.1753408492E-01       4    7    1        -0.9283975344E+00      0.1918350651E+01
          0                 2           2             4    7     1       0.1705576078E-02       4    7    1         0.9283892469E-01      0.1918337688E+00
          0                 3           1             4    7     1      -0.1161435274E-03       4    7    1        -0.6498735384E-02      0.1342828475E-01
          0                 4           1             4    7     1       0.4621458351E-05       4    7    1         0.2657986138E-03      0.5491894867E-03

    ------------------------------------------------
       NWT REQUIRED            4 OUTER ITERATIONS 
       AND A TOTAL OF          6 INNER ITERATIONS.
    ------------------------------------------------

 NO OUTPUT CONTROL FOR STRESS PERIOD   13   TIME STEP   27
 
 SOLVING FOR HEAD 
                                                   Max.-Head-Change                         Max.-Flux-Residual
  Residual-Control   Outer-Iter.   Inner-Iter.     Column Row Layer    Maximum-Head-Change  Column Row Layer    Maximum-Flux-Residual          L2-NORM 
          0                 1           2             4    7     1      -0.1720768249E-01       4    7    1        -0.9110762778E+00      0.1886227095E+01
          0                 2           2             4    7     1       0.1673826502E-02       4    7    1         0.9110683149E-01      0.1886214970E+00
          0                 3           1             4    7     1      -0.1139814943E-03       4    7    1        -0.6377488489E-02      0.1320346533E-01
          0                 4           1             4    7     1       0.4535429482E-05       4    7    1         0.2608396248E-03      0.5400154207E-03

    ------------------------------------------------
       NWT REQUIRED            4 OUTER ITERATIONS 
       AND A TOTAL OF          6 INNER ITERATIONS.
    ------------------------------------------------

 NO OUTPUT CONTROL FOR STRESS PERIOD   13   TIME STEP   28
 
 SOLVING FOR HEAD 
                                                   Max.-Head-Change                         Max.-Flux-Residual
  Residual-Control   Outer-Iter.   Inner-Iter.     Column Row Layer    Maximum-Head-Change  Column Row Layer    Maximum-Flux-Residual          L2-NORM 
          0                 1           2             4    7     1      -0.1688795097E-01       4    7    1        -0.8941078897E+00      0.1854816384E+01
          0                 2           2             4    7     1       0.1642725805E-02       4    7    1         0.8941002389E-01      0.1854805191E+00
          0                 3           1             4    7     1      -0.1118636474E-03       4    7    1        -0.6258711622E-02      0.1298359476E-01
          0                 4           1             4    7     1       0.4451157690E-05       4    7    1         0.2559816189E-03      0.5310249267E-03

    ------------------------------------------------
       NWT REQUIRED            4 OUTER ITERATIONS 
       AND A TOTAL OF          6 INNER ITERATIONS.
    ------------------------------------------------

 NO OUTPUT CONTROL FOR STRESS PERIOD   13   TIME STEP   29
 
 SOLVING FOR HEAD 
                                                   Max.-Head-Change                         Max.-Flux-Residual
  Residual-Control   Outer-Iter.   Inner-Iter.     Column Row Layer    Maximum-Head-Change  Column Row Layer    Maximum-Flux-Residual          L2-NORM 
          0                 1           2             4    7     1      -0.1657503219E-01       4    7    1        -0.8775002393E+00      0.1824119690E+01
          0                 2           2             4    7     1       0.1612287782E-02       4    7    1         0.8774928878E-01      0.1824195933E+00
          0                 3           1             4    7     1      -0.1097909264E-03       4    7    1        -0.6142459811E-02      0.1276933635E-01
          0                 4           1             4    7     1       0.4368682810E-05       4    7    1         0.2512269314E-03      0.5222696409E-03

    ------------------------------------------------
       NWT REQUIRED            4 OUTER ITERATIONS 
       AND A TOTAL OF          6 INNER ITERATIONS.
    ------------------------------------------------

 NO OUTPUT CONTROL FOR STRESS PERIOD   13   TIME STEP   30



 STREAM LISTING     PERIOD     13   STEP       30

 LAYER ROW COL. STREAM  RCH.  FLOW INTO     FLOW TO   FLOW OUT OF   OVRLND.     DIRECT     STREAM       STREAM     STREAM     STREAM   STREAMBED  STREAMBED
                SEG.NO.  NO.  STRM. RCH.    AQUIFER    STRM. RCH.    RUNOFF     PRECIP       ET          HEAD       DEPTH      WIDTH   CONDCTNC.   GRADIENT

   1    1    1     1     1    1.7250E+01  2.0269E-01   1.7047E+01  0.000E+00  0.000E+00  0.000E+00  1.09410E+03  1.052E+00  1.112E+01  5.002E-02  1.351E+00
   1    2    2     1     2    1.7047E+01  3.1258E-01   1.6735E+01  0.000E+00  0.000E+00  0.000E+00  1.08911E+03  1.047E+00  1.103E+01  7.723E-02  1.349E+00
   1    3    3     1     3    1.6735E+01  2.6529E-01   1.6469E+01  0.000E+00  0.000E+00  0.000E+00  1.08346E+03  1.042E+00  1.094E+01  6.563E-02  1.347E+00
   1    3    4     1     4    1.6469E+01  2.4324E-01   1.6226E+01  0.000E+00  0.000E+00  0.000E+00  1.07845E+03  1.038E+00  1.085E+01  6.024E-02  1.346E+00
   1    4    5     2     1    1.4226E+01  3.0073E-01   1.3925E+01  0.000E+00  0.000E+00  0.000E+00  1.07279E+03  8.555E-01  1.200E+01  7.800E-02  1.285E+00
   1    5    6     2     2    1.3925E+01  2.3075E-01   1.3695E+01  0.000E+00  0.000E+00  0.000E+00  1.06736E+03  8.458E-01  1.200E+01  6.000E-02  1.282E+00
   1    6    6     2     3    1.3695E+01  2.3024E-01   1.3464E+01  0.000E+00  0.000E+00  0.000E+00  1.06263E+03  8.373E-01  1.200E+01  6.000E-02  1.279E+00
   1    7    6     2     4    1.3464E+01  2.2972E-01   1.3235E+01  0.000E+00  0.000E+00  0.000E+00  1.05790E+03  8.287E-01  1.200E+01  6.000E-02  1.276E+00
   1    8    6     2     5    1.3235E+01  2.2921E-01   1.3005E+01  0.000E+00  0.000E+00  0.000E+00  1.05318E+03  8.202E-01  1.200E+01  6.000E-02  1.273E+00
   1    3    5     3     1    2.0000E+00  2.8252E-01   1.7175E+00  0.000E+00  0.000E+00  0.000E+00  1.07555E+03  1.909E+00  9.636E+00  7.227E-02  1.955E+00
   1    3    6     3     2    1.7175E+00  2.4905E-01   1.4684E+00  0.000E+00  0.000E+00  0.000E+00  1.07264E+03  1.727E+00  8.909E+00  6.682E-02  1.864E+00
   1    3    7     3     3    1.4684E+00  1.9718E-01   1.2712E+00  0.000E+00  0.000E+00  0.000E+00  1.06987E+03  1.555E+00  8.218E+00  5.547E-02  1.777E+00
   1    4    8     3     4    1.2712E+00  2.2567E-01   1.0456E+00  0.000E+00  0.000E+00  0.000E+00  1.06682E+03  1.364E+00  7.455E+00  6.709E-02  1.682E+00
   1    5    8     3     5    1.0456E+00  1.5790E-01   8.8768E-01  0.000E+00  0.000E+00  0.000E+00  1.06362E+03  1.164E+00  6.655E+00  4.991E-02  1.582E+00
   1    6    8     3     6    8.8768E-01  5.5980E-02   8.3170E-01  0.000E+00  0.000E+00  0.000E+00  1.06158E+03  1.036E+00  6.145E+00  1.844E-02  1.518E+00
   1    5   10     4     1    1.0000E+01  9.0919E-02   9.9091E+00  0.000E+00  0.000E+00  0.000E+00  1.07836E+03  6.368E-01  1.000E+01  2.500E-02  1.212E+00
   1    5    9     4     2    9.9091E+00  1.8158E-01   9.7275E+00  0.000E+00  0.000E+00  0.000E+00  1.07154E+03  6.315E-01  1.000E+01  5.000E-02  1.211E+00
   1    6    8     4     3    9.7275E+00  1.2689E-01   9.6006E+00  0.000E+00  0.000E+00  0.000E+00  1.06381E+03  6.256E-01  1.000E+01  3.500E-02  1.209E+00
   1    6    8     5     1    1.0432E+01  2.2686E-01   1.0205E+01  0.000E+00  0.000E+00  0.000E+00  1.05868E+03  6.790E-01  1.542E+01  6.166E-02  1.226E+00
   1    7    7     5     2    1.0205E+01  2.7894E-01   9.9265E+00  0.000E+00  0.000E+00  0.000E+00  1.05417E+03  6.732E-01  1.519E+01  7.594E-02  1.224E+00
   1    8    7     5     3    9.9265E+00  1.9221E-01   9.7343E+00  0.000E+00  0.000E+00  0.000E+00  1.04992E+03  6.676E-01  1.497E+01  5.241E-02  1.223E+00
   1    8    6     5     4    9.7343E+00  1.3577E-01   9.5985E+00  0.000E+00  0.000E+00  0.000E+00  1.04691E+03  6.637E-01  1.482E+01  3.706E-02  1.221E+00
   1    9    6     6     1    2.2604E+01  2.4874E-01   2.2355E+01  0.000E+00  0.000E+00  0.000E+00  1.04387E+03  1.146E+00  1.200E+01  6.000E-02  1.382E+00
   1   10    7     6     2    2.2355E+01  2.4828E-01   2.2107E+01  0.000E+00  0.000E+00  0.000E+00  1.03932E+03  1.138E+00  1.200E+01  6.000E-02  1.379E+00
   1   11    7     6     3    2.2107E+01  2.4782E-01   2.1859E+01  0.000E+00  0.000E+00  0.000E+00  1.03477E+03  1.130E+00  1.200E+01  6.000E-02  1.377E+00
   1   12    7     6     4    2.1859E+01  2.4736E-01   2.1612E+01  0.000E+00  0.000E+00  0.000E+00  1.03021E+03  1.123E+00  1.200E+01  6.000E-02  1.374E+00
   1   13    7     6     5    2.1612E+01 -1.0239E-03   2.1613E+01  0.000E+00  0.000E+00  0.000E+00  1.02703E+03  1.119E+00  1.200E+01  2.400E-01 -1.422E-03
   1   14    9     7     1    1.5000E+02  1.3381E+00   1.4866E+02  0.000E+00  0.000E+00  0.000E+00  1.03987E+03  2.288E+00  5.529E+01  5.593E-01  7.975E-01
   1   13    8     7     2    1.4866E+02  1.8423E+00   1.4682E+02  0.000E+00  0.000E+00  0.000E+00  1.03478E+03  2.279E+00  5.526E+01  6.148E-01  9.989E-01
   1   13    7     7     3    1.4682E+02  1.4841E+00   1.4534E+02  0.000E+00  0.000E+00  0.000E+00  1.02969E+03  2.270E+00  5.522E+01  5.584E-01  8.858E-01
   1   13    6     8     1    1.6695E+02  9.2066E-01   1.6603E+02  0.000E+00  0.000E+00  0.000E+00  1.02480E+03  2.929E+00  4.247E+01  4.328E-01  7.090E-01
   1   13    5     8     2    1.6603E+02  1.7667E-01   1.6585E+02  0.000E+00  0.000E+00  0.000E+00  1.01855E+03  2.926E+00  4.242E+01  4.323E-01  1.362E-01
   1   13    4     8     3    1.6585E+02 -2.4364E+00   1.6829E+02  0.000E+00  0.000E+00  0.000E+00  1.01231E+03  2.933E+00  4.253E+01  4.334E+00 -1.874E-01
   1   13    3     8     4    1.6829E+02 -3.6457E+00   1.7193E+02  0.000E+00  0.000E+00  0.000E+00  1.00608E+03  2.953E+00  4.282E+01  4.363E+00 -2.785E-01
   1   13    2     8     5    1.7193E+02 -2.5810E+00   1.7451E+02  0.000E+00  0.000E+00  0.000E+00  9.99848E+02  2.973E+00  4.311E+01  4.393E+00 -1.958E-01
   1   13    1     8     6    1.7451E+02 -1.9873E+00   1.7650E+02  0.000E+00  0.000E+00  0.000E+00  9.94863E+02  2.988E+00  4.332E+01  2.649E+00 -2.501E-01
   1    8    6     9     1    0.0000E+00  0.0000E+00   0.0000E+00  0.000E+00  0.000E+00  0.000E+00  1.07875E+03  0.000E+00  4.000E+00  0.000E+00  1.000E+00
   1    8    5     9     2    0.0000E+00  0.0000E+00   0.0000E+00  0.000E+00  0.000E+00  0.000E+00  1.07825E+03  0.000E+00  4.000E+00  0.000E+00  1.000E+00





UNSATURATED ZONE PACKAGE VOLUMETRIC BUDGET FOR  TIME STEP    30 STRESS PERIOD   13
  ------------------------------------------------------------------------------



     CUMULATIVE VOLUMES      L**3       RATES FOR THIS TIME STEP      L**3/T
     ------------------                 ------------------------

           IN:                                      IN:
           ---                                      ---
        INFILTRATION =  1599574404.8286          INFILTRATION =           0.8475

          OUT:                                     OUT:
          ----                                     ----
              UZF ET =   432275187.6629                UZF ET =           0.7500
        UZF RECHARGE =   887717398.7402          UZF RECHARGE =       0.0000E+00

            IN - OUT =   279581818.4254              IN - OUT =       9.7500E-02

          STORAGE:                                 STORAGE:
          --------                                 --------
      STORAGE CHANGE =   279583923.6838        STORAGE CHANGE =       9.7500E-02

 PERCENT DISCREPANCY IS DIFFERENCE BETWEEN IN-OUT MINUS CHANGE IN STORAGE
 DIVIDED BY THE AVERAGE OF IN AND OUT TIMES 100

 PERCENT DISCREPANCY =          -0.00     PERCENT DISCREPANCY =           0.00






1
  VOLUMETRIC BUDGET FOR AGRICULTURAL FIELDS AT  END OF TIME STEP   30, STRESS PERIOD  13
  ------------------------------------------------------------------------------

     CUMULATIVE VOLUMES      L**3       RATES FOR THIS TIME STEP      L**3/T
     ------------------                 ------------------------

           IN:                                      IN:
           ---                                      ---
           AG WELLS      =  1024023808.0000             AG WELLS      =           0.0000
      DIVERSION SEGMENTS =   548718528.0000        DIVERSION SEGMENTS =           0.0000
           GW IRRIGATION =           0.0000             GW IRRIGATION =           0.0000
           SW IRRIGATION =           0.0000             SW IRRIGATION =           0.0000
        SYSTEM LOSSES GW =           0.0000          SYSTEM LOSSES GW =           0.0000
        SYSTEM LOSSES SW =           0.0000          SYSTEM LOSSES SW =           0.0000

                TOTAL IN =  1572742400.0000                  TOTAL IN =           0.0000

          OUT:                                     OUT:
          ----                                     ----
           AG WELLS      =           0.0000             AG WELLS      =           0.0000
      DIVERSION SEGMENTS =           0.0000        DIVERSION SEGMENTS =           0.0000
           GW IRRIGATION =  1024023808.0000             GW IRRIGATION =           0.0000
           SW IRRIGATION =   548729152.0000             SW IRRIGATION =           0.0000
        SYSTEM LOSSES GW =           0.0000          SYSTEM LOSSES GW =           0.0000
        SYSTEM LOSSES SW =           0.0000          SYSTEM LOSSES SW =           0.0000

               TOTAL OUT =  1572752896.0000                 TOTAL OUT =           0.0000

                IN - OUT =      -10496.0000                  IN - OUT =           0.0000

     PERCENT DISCREPANCY =          -0.00         PERCENT DISCREPANCY =           0.00



1
  VOLUMETRIC BUDGET FOR ENTIRE MODEL AT END OF TIME STEP   30, STRESS PERIOD  13
  ------------------------------------------------------------------------------

     CUMULATIVE VOLUMES      L**3       RATES FOR THIS TIME STEP      L**3/T
     ------------------                 ------------------------

           IN:                                      IN:
           ---                                      ---
             STORAGE     =  1114893696.0000               STORAGE     =           4.8789
       CONSTANT HEAD     =           0.0000         CONSTANT HEAD     =           0.0000
     HEAD DEP BOUNDS     =     9043917.0000       HEAD DEP BOUNDS     =           0.2859
      STREAM LEAKAGE     =   378729632.0000        STREAM LEAKAGE     =          11.4000
        UZF RECHARGE     =   887717248.0000          UZF RECHARGE     =           0.0000
               GW ET     =           0.0000                 GW ET     =           0.0000
     SURFACE LEAKAGE     =           0.0000       SURFACE LEAKAGE     =           0.0000
           AG WELLS      =           0.0000             AG WELLS      =           0.0000

                TOTAL IN =  2390384640.0000                  TOTAL IN =          16.5648

          OUT:                                     OUT:
          ----                                     ----
             STORAGE     =  1014833216.0000               STORAGE     =           5.6241
       CONSTANT HEAD     =           0.0000         CONSTANT HEAD     =           0.0000
     HEAD DEP BOUNDS     =     9168339.0000       HEAD DEP BOUNDS     =           0.2893
      STREAM LEAKAGE     =   342299168.0000        STREAM LEAKAGE     =          10.6514
        UZF RECHARGE     =           0.0000          UZF RECHARGE     =           0.0000
               GW ET     =       56916.5898                 GW ET     =           0.0000
     SURFACE LEAKAGE     =           0.0000       SURFACE LEAKAGE     =           0.0000
           AG WELLS      =  1024023808.0000             AG WELLS      =           0.0000

               TOTAL OUT =  2390381568.0000                 TOTAL OUT =          16.5648

                IN - OUT =        3072.0000                  IN - OUT =       7.6294E-06

     PERCENT DISCREPANCY =           0.00         PERCENT DISCREPANCY =           0.00






         TIME SUMMARY AT END OF TIME STEP   30 IN STRESS PERIOD   13
                    SECONDS     MINUTES      HOURS       DAYS        YEARS
                    -----------------------------------------------------------
   TIME STEP LENGTH  87667.      1461.1      24.352      1.0147     2.77799E-03
 STRESS PERIOD TIME 2.63000E+06  43833.      730.56      30.440     8.33397E-02
         TOTAL TIME 3.16463E+07 5.27439E+05  8790.6      366.28      1.0028    
1
1
                            STRESS PERIOD NO.   14, LENGTH =   2630000.    
                            -----------------------------------------------

                              NUMBER OF TIME STEPS =    30

                               MULTIPLIER FOR DELT =     1.000

                            INITIAL TIME STEP SIZE =   87666.66    

 REUSING NON-PARAMETER GHB CELLS FROM LAST STRESS PERIOD

      2 GHB CELLS

 REUSING STREAM SEGMENT DATA FROM LAST STRESS PERIOD



            AREAL INFILTRATION RATE
 READING ON UNIT   19 WITH FORMAT: (FREE)              

            1           2           3           4           5           6           7           8           9          10
 ........................................................................................................................
   1   1.0000E-10  2.0000E-10   0.000       0.000       0.000       0.000       0.000       0.000       0.000       0.000    
   2   2.0000E-10  1.0000E-10  2.0000E-10   0.000       0.000      8.0000E-10  8.0000E-10  5.0000E-10   0.000       0.000    
   3    0.000      5.0000E-10  1.0000E-10  1.0000E-10  8.0000E-10  8.0000E-10  5.0000E-10  5.0000E-10   0.000       0.000    
   4   8.0000E-10  5.0000E-10  1.0000E-10  1.0000E-10  1.0000E-10  1.0000E-10  1.0000E-10  1.0000E-10  2.0000E-10   0.000    
   5   8.0000E-10  5.0000E-10  1.0000E-10  1.0000E-10  1.0000E-10  1.0000E-10  1.0000E-10  1.0000E-10  1.0000E-10  1.0000E-10
   6   8.0000E-10  5.0000E-10  5.0000E-10  2.0000E-10  2.0000E-10  1.0000E-10  1.0000E-10  1.0000E-10  1.0000E-10  5.0000E-10
   7   8.0000E-10  5.0000E-10  5.0000E-10  2.0000E-10  2.0000E-10  1.0000E-10  1.0000E-10  2.0000E-10  2.0000E-10   0.000    
   8    0.000      5.0000E-10  5.0000E-10  2.0000E-10  2.0000E-10  1.0000E-10  1.0000E-10  2.0000E-10  5.0000E-10   0.000    
   9    0.000      5.0000E-10  5.0000E-10  2.0000E-10  2.0000E-10  1.0000E-10  1.0000E-10  2.0000E-10  5.0000E-10   0.000    
  10    0.000      5.0000E-10  5.0000E-10  2.0000E-10  2.0000E-10  1.0000E-10  1.0000E-10  2.0000E-10  5.0000E-10  8.0000E-10
  11    0.000      1.0000E-10  1.0000E-10  1.0000E-10  1.0000E-10  1.0000E-10  1.0000E-10  2.0000E-10  5.0000E-10   0.000    
  12   1.0000E-10  1.0000E-10  1.0000E-10  1.0000E-10  1.0000E-10  1.0000E-10  1.0000E-10  1.0000E-10  2.0000E-10   0.000    
  13   1.0000E-10  1.0000E-10  2.0000E-10  2.0000E-10  2.0000E-10  2.0000E-10  2.0000E-10  1.0000E-10  1.0000E-10   0.000    
  14    0.000      2.0000E-10  5.0000E-10  5.0000E-10  5.0000E-10  5.0000E-10  5.0000E-10  2.0000E-10  1.0000E-10   0.000    
  15    0.000       0.000      8.0000E-10  8.0000E-10  8.0000E-10  8.0000E-10   0.000       0.000       0.000       0.000    

                  ET RATE =  5.000000E-10

 USING ET EXTINCTION DEPTH FROM PREVIOUS STRESS PERIOD. CURRENT PERIOD IS:      14

 USING EXTINCTION WATER CONTENT FROM PREVIOUS STRESS PERIOD. CURRENT PERIOD IS:      14

 USING AIR ENTRY PRESSURE FROM PREVIOUS STRESS PERIOD. CURRENT PERIOD IS:      14

 USING ROOT PRESSURE HEAD FROM PREVIOUS STRESS PERIOD. CURRENT PERIOD IS:      14

 USING ROOT ACTIVITY FROM PREVIOUS STRESS PERIOD. CURRENT PERIOD IS:      14

 PROCESSING AG STRESS PERIOD DATA

 READING AG STRESS PERIOD DATA

 READING IRRIGATION SEGMENT

 READING IRRIGATION WELL

 READING SUPPLEMENTAL WELL

 END PROCESSING AG STRESS PERIOD DATA OPTIONS
 
 SOLVING FOR HEAD 
                                                   Max.-Head-Change                         Max.-Flux-Residual
  Residual-Control   Outer-Iter.   Inner-Iter.     Column Row Layer    Maximum-Head-Change  Column Row Layer    Maximum-Flux-Residual          L2-NORM 
          0                 1           2             4    7     1      -0.1626851213E-01       4    7    1        -0.8612309790E+00      0.1793466734E+01
          0                 2           2             4    7     1       0.1582472164E-02       4    7    1         0.8612239156E-01      0.1793407420E+00
          0                 3           1             4    7     1      -0.1077605892E-03       4    7    1        -0.6028576687E-02      0.1255334752E-01
          0                 4           1             4    7     1       0.4287893398E-05       4    7    1         0.2465690911E-03      0.5134239451E-03

    ------------------------------------------------
       NWT REQUIRED            4 OUTER ITERATIONS 
       AND A TOTAL OF          6 INNER ITERATIONS.
    ------------------------------------------------

 NO OUTPUT CONTROL FOR STRESS PERIOD   14   TIME STEP    1
 
 SOLVING FOR HEAD 
                                                   Max.-Head-Change                         Max.-Flux-Residual
  Residual-Control   Outer-Iter.   Inner-Iter.     Column Row Layer    Maximum-Head-Change  Column Row Layer    Maximum-Flux-Residual          L2-NORM 
          0                 1           2             4    7     1      -0.1596882578E-01       4    7    1        -0.8453231917E+00      0.1765477808E+01
          0                 2           2             4    7     1       0.1553321263E-02       4    7    1         0.8453164047E-01      0.1765239422E+00
          0                 3           1             4    7     1      -0.1057755167E-03       4    7    1        -0.5917223793E-02      0.1235456024E-01
          0                 4           1             4    7     1       0.4208905272E-05       4    7    1         0.2420147509E-03      0.5051939966E-03

    ------------------------------------------------
       NWT REQUIRED            4 OUTER ITERATIONS 
       AND A TOTAL OF          6 INNER ITERATIONS.
    ------------------------------------------------

 NO OUTPUT CONTROL FOR STRESS PERIOD   14   TIME STEP    2
 
 SOLVING FOR HEAD 
                                                   Max.-Head-Change                         Max.-Flux-Residual
  Residual-Control   Outer-Iter.   Inner-Iter.     Column Row Layer    Maximum-Head-Change  Column Row Layer    Maximum-Flux-Residual          L2-NORM 
          0                 1           2             4    7     1      -0.1567498768E-01       4    7    1        -0.8297251845E+00      0.1736190993E+01
          0                 2           2             4    7     1       0.1524739221E-02       4    7    1         0.8297186633E-01      0.1735980984E+00
          0                 3           1             4    7     1      -0.1038291820E-03       4    7    1        -0.5808039318E-02      0.1214995629E-01
          0                 4           1             4    7     1       0.4131459166E-05       4    7    1         0.2375491058E-03      0.4968285428E-03

    ------------------------------------------------
       NWT REQUIRED            4 OUTER ITERATIONS 
       AND A TOTAL OF          6 INNER ITERATIONS.
    ------------------------------------------------

 NO OUTPUT CONTROL FOR STRESS PERIOD   14   TIME STEP    3
 
 SOLVING FOR HEAD 
                                                   Max.-Head-Change                         Max.-Flux-Residual
  Residual-Control   Outer-Iter.   Inner-Iter.     Column Row Layer    Maximum-Head-Change  Column Row Layer    Maximum-Flux-Residual          L2-NORM 
          0                 1           2             4    7     1      -0.1538769580E-01       4    7    1        -0.8144749557E+00      0.1707599419E+01
          0                 2           2             4    7     1       0.1496793931E-02       4    7    1         0.8144686892E-01      0.1707415498E+00
          0                 3           1             4    7     1      -0.1019262080E-03       4    7    1        -0.5701289215E-02      0.1195047094E-01
          0                 4           1             4    7     1       0.4055738131E-05       4    7    1         0.2331830262E-03      0.4889164464E-03

    ------------------------------------------------
       NWT REQUIRED            4 OUTER ITERATIONS 
       AND A TOTAL OF          6 INNER ITERATIONS.
    ------------------------------------------------

 NO OUTPUT CONTROL FOR STRESS PERIOD   14   TIME STEP    4
 
 SOLVING FOR HEAD 
                                                   Max.-Head-Change                         Max.-Flux-Residual
  Residual-Control   Outer-Iter.   Inner-Iter.     Column Row Layer    Maximum-Head-Change  Column Row Layer    Maximum-Flux-Residual          L2-NORM 
          0                 1           2             4    7     1      -0.1510652479E-01       4    7    1        -0.7995492989E+00      0.1679684758E+01
          0                 2           2             4    7     1       0.1469444019E-02       4    7    1         0.7995432767E-01      0.1679523405E+00
          0                 3           1             4    7     1      -0.1000637768E-03       4    7    1        -0.5596811050E-02      0.1175521741E-01
          0                 4           1             4    7     1       0.3981630265E-05       4    7    1         0.2289098647E-03      0.4806713045E-03

    ------------------------------------------------
       NWT REQUIRED            4 OUTER ITERATIONS 
       AND A TOTAL OF          6 INNER ITERATIONS.
    ------------------------------------------------

 NO OUTPUT CONTROL FOR STRESS PERIOD   14   TIME STEP    5
 
 SOLVING FOR HEAD 
                                                   Max.-Head-Change                         Max.-Flux-Residual
  Residual-Control   Outer-Iter.   Inner-Iter.     Column Row Layer    Maximum-Head-Change  Column Row Layer    Maximum-Flux-Residual          L2-NORM 
          0                 1           2             4    7     1      -0.1483106101E-01       4    7    1        -0.7849261613E+00      0.1652405703E+01
          0                 2           2             4    7     1       0.1442649251E-02       4    7    1         0.7849203740E-01      0.1652263524E+00
          0                 3           1             4    7     1      -0.9823914916E-04       4    7    1        -0.5494450463E-02      0.1156460789E-01

    ------------------------------------------------
       NWT REQUIRED            3 OUTER ITERATIONS 
       AND A TOTAL OF          5 INNER ITERATIONS.
    ------------------------------------------------

 NO OUTPUT CONTROL FOR STRESS PERIOD   14   TIME STEP    6
 
 SOLVING FOR HEAD 
                                                   Max.-Head-Change                         Max.-Flux-Residual
  Residual-Control   Outer-Iter.   Inner-Iter.     Column Row Layer    Maximum-Head-Change  Column Row Layer    Maximum-Flux-Residual          L2-NORM 
          0                 1           2             4    7     1      -0.1456162796E-01       4    7    1        -0.7706240152E+00      0.1625732482E+01
          0                 2           2             4    7     1       0.1416441095E-02       4    7    1         0.7706184526E-01      0.1625607582E+00
          0                 3           1             4    7     1      -0.9645446749E-04       4    7    1        -0.5394336775E-02      0.1137811973E-01

    ------------------------------------------------
       NWT REQUIRED            3 OUTER ITERATIONS 
       AND A TOTAL OF          5 INNER ITERATIONS.
    ------------------------------------------------

 NO OUTPUT CONTROL FOR STRESS PERIOD   14   TIME STEP    7
 
 SOLVING FOR HEAD 
                                                   Max.-Head-Change                         Max.-Flux-Residual
  Residual-Control   Outer-Iter.   Inner-Iter.     Column Row Layer    Maximum-Head-Change  Column Row Layer    Maximum-Flux-Residual          L2-NORM 
          0                 1           2             4    7     1      -0.1429762950E-01       4    7    1        -0.7566095871E+00      0.1599661384E+01
          0                 2           2             4    7     1       0.1390761563E-02       4    7    1         0.7566042408E-01      0.1599550634E+00
          0                 3           1             4    7     1      -0.9470578359E-04       4    7    1        -0.5296237041E-02      0.1119585842E-01

    ------------------------------------------------
       NWT REQUIRED            3 OUTER ITERATIONS 
       AND A TOTAL OF          5 INNER ITERATIONS.
    ------------------------------------------------

 NO OUTPUT CONTROL FOR STRESS PERIOD   14   TIME STEP    8
 
 SOLVING FOR HEAD 
                                                   Max.-Head-Change                         Max.-Flux-Residual
  Residual-Control   Outer-Iter.   Inner-Iter.     Column Row Layer    Maximum-Head-Change  Column Row Layer    Maximum-Flux-Residual          L2-NORM 
          0                 1           2             4    7     1      -0.1403947603E-01       4    7    1        -0.7429066337E+00      0.1574164177E+01
          0                 2           2             4    7     1       0.1365650575E-02       4    7    1         0.7429014939E-01      0.1574066664E+00
          0                 3           1             4    7     1      -0.9299581542E-04       4    7    1        -0.5200317576E-02      0.1101814689E-01

    ------------------------------------------------
       NWT REQUIRED            3 OUTER ITERATIONS 
       AND A TOTAL OF          5 INNER ITERATIONS.
    ------------------------------------------------

 NO OUTPUT CONTROL FOR STRESS PERIOD   14   TIME STEP    9
 
 SOLVING FOR HEAD 
                                                   Max.-Head-Change                         Max.-Flux-Residual
  Residual-Control   Outer-Iter.   Inner-Iter.     Column Row Layer    Maximum-Head-Change  Column Row Layer    Maximum-Flux-Residual          L2-NORM 
          0                 1           2             4    7     1      -0.1378648615E-01       4    7    1        -0.7294770478E+00      0.1549224732E+01
          0                 2           2             4    7     1       0.1341041851E-02       4    7    1         0.7294721068E-01      0.1549139264E+00
          0                 3           1             4    7     1      -0.9132004961E-04       4    7    1        -0.5106311628E-02      0.1084323000E-01

    ------------------------------------------------
       NWT REQUIRED            3 OUTER ITERATIONS 
       AND A TOTAL OF          5 INNER ITERATIONS.
    ------------------------------------------------

 NO OUTPUT CONTROL FOR STRESS PERIOD   14   TIME STEP   10
 
 SOLVING FOR HEAD 
                                                   Max.-Head-Change                         Max.-Flux-Residual
  Residual-Control   Outer-Iter.   Inner-Iter.     Column Row Layer    Maximum-Head-Change  Column Row Layer    Maximum-Flux-Residual          L2-NORM 
          0                 1           2             4    7     1      -0.1353908579E-01       4    7    1        -0.7163448828E+00      0.1524829881E+01
          0                 2           2             4    7     1       0.1316976824E-02       4    7    1         0.7163401325E-01      0.1524754378E+00
          0                 3           1             4    7     1      -0.8968130754E-04       4    7    1        -0.5014387595E-02      0.1067270668E-01

    ------------------------------------------------
       NWT REQUIRED            3 OUTER ITERATIONS 
       AND A TOTAL OF          5 INNER ITERATIONS.
    ------------------------------------------------

 NO OUTPUT CONTROL FOR STRESS PERIOD   14   TIME STEP   11
 
 SOLVING FOR HEAD 
                                                   Max.-Head-Change                         Max.-Flux-Residual
  Residual-Control   Outer-Iter.   Inner-Iter.     Column Row Layer    Maximum-Head-Change  Column Row Layer    Maximum-Flux-Residual          L2-NORM 
          0                 1           2             4    7     1      -0.1329685688E-01       4    7    1        -0.7034876864E+00      0.1500951481E+01
          0                 2           2             4    7     1       0.1293414827E-02       4    7    1         0.7034831189E-01      0.1500884903E+00
          0                 3           1             4    7     1      -0.8807682039E-04       4    7    1        -0.4924388277E-02      0.1050562042E-01

    ------------------------------------------------
       NWT REQUIRED            3 OUTER ITERATIONS 
       AND A TOTAL OF          5 INNER ITERATIONS.
    ------------------------------------------------

 NO OUTPUT CONTROL FOR STRESS PERIOD   14   TIME STEP   12
 
 SOLVING FOR HEAD 
                                                   Max.-Head-Change                         Max.-Flux-Residual
  Residual-Control   Outer-Iter.   Inner-Iter.     Column Row Layer    Maximum-Head-Change  Column Row Layer    Maximum-Flux-Residual          L2-NORM 
          0                 1           2             4    7     1      -0.1305967918E-01       4    7    1        -0.6908986269E+00      0.1477587731E+01
          0                 2           2             4    7     1       0.1270342779E-02       4    7    1         0.6908942347E-01      0.1476821892E+00
          0                 3           1             4    7     1      -0.8650569706E-04       4    7    1        -0.4836265885E-02      0.1033730713E-01

    ------------------------------------------------
       NWT REQUIRED            3 OUTER ITERATIONS 
       AND A TOTAL OF          5 INNER ITERATIONS.
    ------------------------------------------------

 NO OUTPUT CONTROL FOR STRESS PERIOD   14   TIME STEP   13
 
 SOLVING FOR HEAD 
                                                   Max.-Head-Change                         Max.-Flux-Residual
  Residual-Control   Outer-Iter.   Inner-Iter.     Column Row Layer    Maximum-Head-Change  Column Row Layer    Maximum-Flux-Residual          L2-NORM 
          0                 1           2             4    7     1      -0.1282743740E-01       4    7    1        -0.6785715437E+00      0.1454775188E+01
          0                 2           2             4    7     1       0.1247640786E-02       4    7    1         0.6785673200E-01      0.1453405666E+00
          0                 3           1             4    7     1      -0.8495977304E-04       4    7    1        -0.4749977315E-02      0.1017339967E-01

    ------------------------------------------------
       NWT REQUIRED            3 OUTER ITERATIONS 
       AND A TOTAL OF          5 INNER ITERATIONS.
    ------------------------------------------------

 NO OUTPUT CONTROL FOR STRESS PERIOD   14   TIME STEP   14
 
 SOLVING FOR HEAD 
                                                   Max.-Head-Change                         Max.-Flux-Residual
  Residual-Control   Outer-Iter.   Inner-Iter.     Column Row Layer    Maximum-Head-Change  Column Row Layer    Maximum-Flux-Residual          L2-NORM 
          0                 1           2             4    7     1      -0.1260065428E-01       4    7    1        -0.6665210793E+00      0.1432577316E+01
          0                 2           2             4    7     1       0.1225694060E-02       4    7    1         0.6665170210E-01      0.1432680429E+00
          0                 3           1             4    7     1      -0.8346527979E-04       4    7    1        -0.4665625004E-02      0.1002835444E-01

    ------------------------------------------------
       NWT REQUIRED            3 OUTER ITERATIONS 
       AND A TOTAL OF          5 INNER ITERATIONS.
    ------------------------------------------------

 NO OUTPUT CONTROL FOR STRESS PERIOD   14   TIME STEP   15
 
 SOLVING FOR HEAD 
                                                   Max.-Head-Change                         Max.-Flux-Residual
  Residual-Control   Outer-Iter.   Inner-Iter.     Column Row Layer    Maximum-Head-Change  Column Row Layer    Maximum-Flux-Residual          L2-NORM 
          0                 1           2             4    7     1      -0.1237855955E-01       4    7    1        -0.6547268820E+00      0.1410870155E+01
          0                 2           2             4    7     1       0.1204090538E-02       4    7    1         0.6547229802E-01      0.1410828995E+00
          0                 3           1             4    7     1      -0.8199415802E-04       4    7    1        -0.4583066537E-02      0.9875485471E-02

    ------------------------------------------------
       NWT REQUIRED            3 OUTER ITERATIONS 
       AND A TOTAL OF          5 INNER ITERATIONS.
    ------------------------------------------------

 NO OUTPUT CONTROL FOR STRESS PERIOD   14   TIME STEP   16
 
 SOLVING FOR HEAD 
                                                   Max.-Head-Change                         Max.-Flux-Residual
  Residual-Control   Outer-Iter.   Inner-Iter.     Column Row Layer    Maximum-Head-Change  Column Row Layer    Maximum-Flux-Residual          L2-NORM 
          0                 1           2             4    7     1      -0.1216113990E-01       4    7    1        -0.6431817708E+00      0.1389596233E+01
          0                 2           2             4    7     1       0.1186229217E-02       4    7    1         0.6453792443E-01      0.1389865282E+00
          0                 3           1             4    7     1      -0.8077786260E-04       4    7    1        -0.4517660004E-02      0.9728745311E-02

    ------------------------------------------------
       NWT REQUIRED            3 OUTER ITERATIONS 
       AND A TOTAL OF          5 INNER ITERATIONS.
    ------------------------------------------------

 NO OUTPUT CONTROL FOR STRESS PERIOD   14   TIME STEP   17
 
 SOLVING FOR HEAD 
                                                   Max.-Head-Change                         Max.-Flux-Residual
  Residual-Control   Outer-Iter.   Inner-Iter.     Column Row Layer    Maximum-Head-Change  Column Row Layer    Maximum-Flux-Residual          L2-NORM 
          0                 1           2             4    7     1      -0.1193935834E-01       4    7    1        -0.6317037001E+00      0.1368747703E+01
          0                 2           2             4    7     1       0.1161369043E-02       4    7    1         0.6317003476E-01      0.1368715301E+00
          0                 3           1             4    7     1      -0.7908497466E-04       4    7    1        -0.4421907520E-02      0.9580714766E-02

    ------------------------------------------------
       NWT REQUIRED            3 OUTER ITERATIONS 
       AND A TOTAL OF          5 INNER ITERATIONS.
    ------------------------------------------------

 NO OUTPUT CONTROL FOR STRESS PERIOD   14   TIME STEP   18
 
 SOLVING FOR HEAD 
                                                   Max.-Head-Change                         Max.-Flux-Residual
  Residual-Control   Outer-Iter.   Inner-Iter.     Column Row Layer    Maximum-Head-Change  Column Row Layer    Maximum-Flux-Residual          L2-NORM 
          0                 1           2             4    7     1      -0.1172613951E-01       4    7    1        -0.6203649288E+00      0.1348289750E+01
          0                 2           2             4    7     1       0.1140628858E-02       4    7    1         0.6203617078E-01      0.1348259585E+00
          0                 3           1             4    7     1      -0.7767264324E-04       4    7    1        -0.4342536884E-02      0.9437543005E-02

    ------------------------------------------------
       NWT REQUIRED            3 OUTER ITERATIONS 
       AND A TOTAL OF          5 INNER ITERATIONS.
    ------------------------------------------------

 NO OUTPUT CONTROL FOR STRESS PERIOD   14   TIME STEP   19
 
 SOLVING FOR HEAD 
                                                   Max.-Head-Change                         Max.-Flux-Residual
  Residual-Control   Outer-Iter.   Inner-Iter.     Column Row Layer    Maximum-Head-Change  Column Row Layer    Maximum-Flux-Residual          L2-NORM 
          0                 1           2             4    7     1      -0.1151793412E-01       4    7    1        -0.6092948781E+00      0.1328257045E+01
          0                 2           2             4    7     1       0.1120376335E-02       4    7    1         0.6092917822E-01      0.1328230889E+00
          0                 3           1             4    7     1      -0.7629351945E-04       4    7    1        -0.4265047237E-02      0.9297391796E-02

    ------------------------------------------------
       NWT REQUIRED            3 OUTER ITERATIONS 
       AND A TOTAL OF          5 INNER ITERATIONS.
    ------------------------------------------------

 NO OUTPUT CONTROL FOR STRESS PERIOD   14   TIME STEP   20
 
 SOLVING FOR HEAD 
                                                   Max.-Head-Change                         Max.-Flux-Residual
  Residual-Control   Outer-Iter.   Inner-Iter.     Column Row Layer    Maximum-Head-Change  Column Row Layer    Maximum-Flux-Residual          L2-NORM 
          0                 1           2             4    7     1      -0.1131430234E-01       4    7    1        -0.5984699290E+00      0.1308616477E+01
          0                 2           2             4    7     1       0.1100568503E-02       4    7    1         0.5984669532E-01      0.1308446015E+00
          0                 3           1             4    7     1      -0.7494467777E-04       4    7    1        -0.4189273286E-02      0.9158924644E-02

    ------------------------------------------------
       NWT REQUIRED            3 OUTER ITERATIONS 
       AND A TOTAL OF          5 INNER ITERATIONS.
    ------------------------------------------------

 NO OUTPUT CONTROL FOR STRESS PERIOD   14   TIME STEP   21
 
 SOLVING FOR HEAD 
                                                   Max.-Head-Change                         Max.-Flux-Residual
  Residual-Control   Outer-Iter.   Inner-Iter.     Column Row Layer    Maximum-Head-Change  Column Row Layer    Maximum-Flux-Residual          L2-NORM 
          0                 1           2             4    7     1      -0.1111511153E-01       4    7    1        -0.5878821283E+00      0.1289372309E+01
          0                 2           2             4    7     1       0.1081193028E-02       4    7    1         0.5878792674E-01      0.1289351983E+00
          0                 3           1             4    7     1      -0.7362527871E-04       4    7    1        -0.4115159365E-02      0.9025306242E-02

    ------------------------------------------------
       NWT REQUIRED            3 OUTER ITERATIONS 
       AND A TOTAL OF          5 INNER ITERATIONS.
    ------------------------------------------------

 NO OUTPUT CONTROL FOR STRESS PERIOD   14   TIME STEP   22
 
 SOLVING FOR HEAD 
                                                   Max.-Head-Change                         Max.-Flux-Residual
  Residual-Control   Outer-Iter.   Inner-Iter.     Column Row Layer    Maximum-Head-Change  Column Row Layer    Maximum-Flux-Residual          L2-NORM 
          0                 1           2             4    7     1      -0.1092050523E-01       4    7    1        -0.5775394100E+00      0.1270609291E+01
          0                 2           2             4    7     1       0.1062263302E-02       4    7    1         0.5775366589E-01      0.1270591180E+00
          0                 3           1             4    7     1      -0.7233623206E-04       4    7    1        -0.4042760948E-02      0.8894009432E-02

    ------------------------------------------------
       NWT REQUIRED            3 OUTER ITERATIONS 
       AND A TOTAL OF          5 INNER ITERATIONS.
    ------------------------------------------------

 NO OUTPUT CONTROL FOR STRESS PERIOD   14   TIME STEP   23
 
 SOLVING FOR HEAD 
                                                   Max.-Head-Change                         Max.-Flux-Residual
  Residual-Control   Outer-Iter.   Inner-Iter.     Column Row Layer    Maximum-Head-Change  Column Row Layer    Maximum-Flux-Residual          L2-NORM 
          0                 1           2             4    7     1      -0.1073005922E-01       4    7    1        -0.5674195642E+00      0.1252199989E+01
          0                 2           2             4    7     1       0.1043738254E-02       4    7    1         0.5674169184E-01      0.1252183719E+00
          0                 3           1             4    7     1      -0.7107474411E-04       4    7    1        -0.3971922664E-02      0.8765144246E-02

    ------------------------------------------------
       NWT REQUIRED            3 OUTER ITERATIONS 
       AND A TOTAL OF          5 INNER ITERATIONS.
    ------------------------------------------------

 NO OUTPUT CONTROL FOR STRESS PERIOD   14   TIME STEP   24
 
 SOLVING FOR HEAD 
                                                   Max.-Head-Change                         Max.-Flux-Residual
  Residual-Control   Outer-Iter.   Inner-Iter.     Column Row Layer    Maximum-Head-Change  Column Row Layer    Maximum-Flux-Residual          L2-NORM 
          0                 1           2             4    7     1      -0.1054393226E-01       4    7    1        -0.5575302668E+00      0.1234160214E+01
          0                 2           2             4    7     1       0.1025633325E-02       4    7    1         0.5575277214E-01      0.1234145721E+00
          0                 3           1             4    7     1      -0.6984186381E-04       4    7    1        -0.3902698137E-02      0.8638906333E-02

    ------------------------------------------------
       NWT REQUIRED            3 OUTER ITERATIONS 
       AND A TOTAL OF          5 INNER ITERATIONS.
    ------------------------------------------------

 NO OUTPUT CONTROL FOR STRESS PERIOD   14   TIME STEP   25
 
 SOLVING FOR HEAD 
                                                   Max.-Head-Change                         Max.-Flux-Residual
  Residual-Control   Outer-Iter.   Inner-Iter.     Column Row Layer    Maximum-Head-Change  Column Row Layer    Maximum-Flux-Residual          L2-NORM 
          0                 1           2             4    7     1      -0.1036171370E-01       4    7    1        -0.5478500697E+00      0.1216452529E+01
          0                 2           2             4    7     1       0.1007908570E-02       4    7    1         0.5478476207E-01      0.1216439675E+00
          0                 3           1             4    7     1      -0.6863487249E-04       4    7    1        -0.3834937330E-02      0.8514968053E-02

    ------------------------------------------------
       NWT REQUIRED            3 OUTER ITERATIONS 
       AND A TOTAL OF          5 INNER ITERATIONS.
    ------------------------------------------------

 NO OUTPUT CONTROL FOR STRESS PERIOD   14   TIME STEP   26
 
 SOLVING FOR HEAD 
                                                   Max.-Head-Change                         Max.-Flux-Residual
  Residual-Control   Outer-Iter.   Inner-Iter.     Column Row Layer    Maximum-Head-Change  Column Row Layer    Maximum-Flux-Residual          L2-NORM 
          0                 1           2             4    7     1      -0.1018383892E-01       4    7    1        -0.5384021982E+00      0.1199117458E+01
          0                 2           2             4    7     1       0.9906063400E-03       4    7    1         0.5383998415E-01      0.1199105583E+00
          0                 3           1             4    7     1      -0.6745665354E-04       4    7    1        -0.3768802756E-02      0.8393672677E-02

    ------------------------------------------------
       NWT REQUIRED            3 OUTER ITERATIONS 
       AND A TOTAL OF          5 INNER ITERATIONS.
    ------------------------------------------------

 NO OUTPUT CONTROL FOR STRESS PERIOD   14   TIME STEP   27
 
 SOLVING FOR HEAD 
                                                   Max.-Head-Change                         Max.-Flux-Residual
  Residual-Control   Outer-Iter.   Inner-Iter.     Column Row Layer    Maximum-Head-Change  Column Row Layer    Maximum-Flux-Residual          L2-NORM 
          0                 1           2             4    7     1      -0.1000935464E-01       4    7    1        -0.5291350314E+00      0.1182090720E+01
          0                 2           2             4    7     1       0.9736339075E-03       4    7    1         0.5291327630E-01      0.1182080295E+00
          0                 3           1             4    7     1      -0.6630089228E-04       4    7    1        -0.3703933086E-02      0.8274479696E-02

    ------------------------------------------------
       NWT REQUIRED            3 OUTER ITERATIONS 
       AND A TOTAL OF          5 INNER ITERATIONS.
    ------------------------------------------------

 NO OUTPUT CONTROL FOR STRESS PERIOD   14   TIME STEP   28
 
 SOLVING FOR HEAD 
                                                   Max.-Head-Change                         Max.-Flux-Residual
  Residual-Control   Outer-Iter.   Inner-Iter.     Column Row Layer    Maximum-Head-Change  Column Row Layer    Maximum-Flux-Residual          L2-NORM 
          0                 1           2             4    7     1      -0.9838985455E-02       4    7    1        -0.5200881761E+00      0.1165390392E+01
          0                 2           2             4    7     1       0.9570617566E-03       4    7    1         0.5200859926E-01      0.1165380999E+00
          0                 3           1             4    7     1      -0.6517238939E-04       4    7    1        -0.3640605606E-02      0.8157597873E-02

    ------------------------------------------------
       NWT REQUIRED            3 OUTER ITERATIONS 
       AND A TOTAL OF          5 INNER ITERATIONS.
    ------------------------------------------------

 NO OUTPUT CONTROL FOR STRESS PERIOD   14   TIME STEP   29
 
 SOLVING FOR HEAD 
                                                   Max.-Head-Change                         Max.-Flux-Residual
  Residual-Control   Outer-Iter.   Inner-Iter.     Column Row Layer    Maximum-Head-Change  Column Row Layer    Maximum-Flux-Residual          L2-NORM 
          0                 1           2             4    7     1      -0.9672066249E-02       4    7    1        -0.5112250079E+00      0.1149018806E+01
          0                 2           2             4    7     1       0.9408251885E-03       4    7    1         0.5112229055E-01      0.1149010582E+00
          0                 3           1             4    7     1      -0.6406673730E-04       4    7    1        -0.3578563855E-02      0.8043010152E-02

    ------------------------------------------------
       NWT REQUIRED            3 OUTER ITERATIONS 
       AND A TOTAL OF          5 INNER ITERATIONS.
    ------------------------------------------------

 NO OUTPUT CONTROL FOR STRESS PERIOD   14   TIME STEP   30



 STREAM LISTING     PERIOD     14   STEP       30

 LAYER ROW COL. STREAM  RCH.  FLOW INTO     FLOW TO   FLOW OUT OF   OVRLND.     DIRECT     STREAM       STREAM     STREAM     STREAM   STREAMBED  STREAMBED
                SEG.NO.  NO.  STRM. RCH.    AQUIFER    STRM. RCH.    RUNOFF     PRECIP       ET          HEAD       DEPTH      WIDTH   CONDCTNC.   GRADIENT

   1    1    1     1     1    1.4250E+01  1.8169E-01   1.4069E+01  0.000E+00  0.000E+00  0.000E+00  1.09404E+03  9.953E-01  1.011E+01  4.548E-02  1.332E+00
   1    2    2     1     2    1.4069E+01  2.7999E-01   1.3789E+01  0.000E+00  0.000E+00  0.000E+00  1.08905E+03  9.906E-01  1.002E+01  7.016E-02  1.330E+00
   1    3    3     1     3    1.3789E+01  2.3745E-01   1.3551E+01  0.000E+00  0.000E+00  0.000E+00  1.08340E+03  9.853E-01  9.930E+00  5.958E-02  1.328E+00
   1    3    4     1     4    1.3551E+01  2.1755E-01   1.3334E+01  0.000E+00  0.000E+00  0.000E+00  1.07839E+03  9.805E-01  9.848E+00  5.465E-02  1.327E+00
   1    4    5     2     1    1.1334E+01  2.9214E-01   1.1041E+01  0.000E+00  0.000E+00  0.000E+00  1.07268E+03  7.454E-01  1.200E+01  7.800E-02  1.248E+00
   1    5    6     2     2    1.1041E+01  2.2410E-01   1.0817E+01  0.000E+00  0.000E+00  0.000E+00  1.06724E+03  7.350E-01  1.200E+01  6.000E-02  1.245E+00
   1    6    6     2     3    1.0817E+01  2.2356E-01   1.0594E+01  0.000E+00  0.000E+00  0.000E+00  1.06252E+03  7.260E-01  1.200E+01  6.000E-02  1.242E+00
   1    7    6     2     4    1.0594E+01  2.2301E-01   1.0371E+01  0.000E+00  0.000E+00  0.000E+00  1.05779E+03  7.168E-01  1.200E+01  6.000E-02  1.239E+00
   1    8    6     2     5    1.0371E+01  2.2246E-01   1.0148E+01  0.000E+00  0.000E+00  0.000E+00  1.05307E+03  7.077E-01  1.200E+01  6.000E-02  1.236E+00
   1    3    5     3     1    2.0000E+00  2.8252E-01   1.7175E+00  0.000E+00  0.000E+00  0.000E+00  1.07555E+03  1.909E+00  9.636E+00  7.227E-02  1.955E+00
   1    3    6     3     2    1.7175E+00  2.4905E-01   1.4684E+00  0.000E+00  0.000E+00  0.000E+00  1.07264E+03  1.727E+00  8.909E+00  6.682E-02  1.864E+00
   1    3    7     3     3    1.4684E+00  1.9718E-01   1.2712E+00  0.000E+00  0.000E+00  0.000E+00  1.06987E+03  1.555E+00  8.218E+00  5.547E-02  1.777E+00
   1    4    8     3     4    1.2712E+00  2.2567E-01   1.0456E+00  0.000E+00  0.000E+00  0.000E+00  1.06682E+03  1.364E+00  7.455E+00  6.709E-02  1.682E+00
   1    5    8     3     5    1.0456E+00  1.5790E-01   8.8768E-01  0.000E+00  0.000E+00  0.000E+00  1.06362E+03  1.164E+00  6.655E+00  4.991E-02  1.582E+00
   1    6    8     3     6    8.8768E-01  5.5980E-02   8.3170E-01  0.000E+00  0.000E+00  0.000E+00  1.06158E+03  1.036E+00  6.145E+00  1.844E-02  1.518E+00
   1    5   10     4     1    1.0000E+01  9.0919E-02   9.9091E+00  0.000E+00  0.000E+00  0.000E+00  1.07836E+03  6.368E-01  1.000E+01  2.500E-02  1.212E+00
   1    5    9     4     2    9.9091E+00  1.8158E-01   9.7275E+00  0.000E+00  0.000E+00  0.000E+00  1.07154E+03  6.315E-01  1.000E+01  5.000E-02  1.211E+00
   1    6    8     4     3    9.7275E+00  1.2689E-01   9.6006E+00  0.000E+00  0.000E+00  0.000E+00  1.06381E+03  6.256E-01  1.000E+01  3.500E-02  1.209E+00
   1    6    8     5     1    1.0432E+01  2.2686E-01   1.0205E+01  0.000E+00  0.000E+00  0.000E+00  1.05868E+03  6.790E-01  1.542E+01  6.166E-02  1.226E+00
   1    7    7     5     2    1.0205E+01  2.7894E-01   9.9265E+00  0.000E+00  0.000E+00  0.000E+00  1.05417E+03  6.732E-01  1.519E+01  7.594E-02  1.224E+00
   1    8    7     5     3    9.9265E+00  1.9221E-01   9.7343E+00  0.000E+00  0.000E+00  0.000E+00  1.04992E+03  6.676E-01  1.497E+01  5.241E-02  1.223E+00
   1    8    6     5     4    9.7343E+00  1.3577E-01   9.5985E+00  0.000E+00  0.000E+00  0.000E+00  1.04691E+03  6.637E-01  1.482E+01  3.706E-02  1.221E+00
   1    9    6     6     1    1.9747E+01  2.4336E-01   1.9503E+01  0.000E+00  0.000E+00  0.000E+00  1.04378E+03  1.056E+00  1.200E+01  6.000E-02  1.352E+00
   1   10    7     6     2    1.9503E+01  2.4289E-01   1.9261E+01  0.000E+00  0.000E+00  0.000E+00  1.03923E+03  1.048E+00  1.200E+01  6.000E-02  1.349E+00
   1   11    7     6     3    1.9261E+01  2.4241E-01   1.9018E+01  0.000E+00  0.000E+00  0.000E+00  1.03468E+03  1.040E+00  1.200E+01  6.000E-02  1.347E+00
   1   12    7     6     4    1.9018E+01  2.4194E-01   1.8776E+01  0.000E+00  0.000E+00  0.000E+00  1.03012E+03  1.032E+00  1.200E+01  6.000E-02  1.344E+00
   1   13    7     6     5    1.8776E+01 -1.8972E-02   1.8795E+01  0.000E+00  0.000E+00  0.000E+00  1.02694E+03  1.029E+00  1.200E+01  2.400E-01 -2.635E-02
   1   14    9     7     1    1.5000E+02  1.3387E+00   1.4866E+02  0.000E+00  0.000E+00  0.000E+00  1.03987E+03  2.288E+00  5.529E+01  5.593E-01  7.978E-01
   1   13    8     7     2    1.4866E+02  1.8462E+00   1.4682E+02  0.000E+00  0.000E+00  0.000E+00  1.03478E+03  2.279E+00  5.526E+01  6.148E-01  1.001E+00
   1   13    7     7     3    1.4682E+02  1.4927E+00   1.4532E+02  0.000E+00  0.000E+00  0.000E+00  1.02969E+03  2.270E+00  5.522E+01  5.584E-01  8.910E-01
   1   13    6     8     1    1.6412E+02  9.1185E-01   1.6321E+02  0.000E+00  0.000E+00  0.000E+00  1.02479E+03  2.910E+00  4.220E+01  4.300E-01  7.068E-01
   1   13    5     8     2    1.6321E+02  1.6976E-01   1.6304E+02  0.000E+00  0.000E+00  0.000E+00  1.01853E+03  2.907E+00  4.215E+01  4.295E-01  1.317E-01
   1   13    4     8     3    1.6304E+02 -2.4591E+00   1.6550E+02  0.000E+00  0.000E+00  0.000E+00  1.01229E+03  2.914E+00  4.226E+01  4.306E+00 -1.903E-01
   1   13    3     8     4    1.6550E+02 -3.6523E+00   1.6915E+02  0.000E+00  0.000E+00  0.000E+00  1.00606E+03  2.935E+00  4.255E+01  4.336E+00 -2.808E-01
   1   13    2     8     5    1.6915E+02 -2.5837E+00   1.7173E+02  0.000E+00  0.000E+00  0.000E+00  9.99830E+02  2.955E+00  4.285E+01  4.366E+00 -1.972E-01
   1   13    1     8     6    1.7173E+02 -1.9888E+00   1.7372E+02  0.000E+00  0.000E+00  0.000E+00  9.94845E+02  2.970E+00  4.306E+01  2.633E+00 -2.518E-01
   1    8    6     9     1    0.0000E+00  0.0000E+00   0.0000E+00  0.000E+00  0.000E+00  0.000E+00  1.07875E+03  0.000E+00  4.000E+00  0.000E+00  1.000E+00
   1    8    5     9     2    0.0000E+00  0.0000E+00   0.0000E+00  0.000E+00  0.000E+00  0.000E+00  1.07825E+03  0.000E+00  4.000E+00  0.000E+00  1.000E+00





UNSATURATED ZONE PACKAGE VOLUMETRIC BUDGET FOR  TIME STEP    30 STRESS PERIOD   14
  ------------------------------------------------------------------------------



     CUMULATIVE VOLUMES      L**3       RATES FOR THIS TIME STEP      L**3/T
     ------------------                 ------------------------

           IN:                                      IN:
           ---                                      ---
        INFILTRATION =  1601803329.7013          INFILTRATION =           0.8475

          OUT:                                     OUT:
          ----                                     ----
              UZF ET =   434247687.5336                UZF ET =           0.7500
        UZF RECHARGE =   887717398.7402          UZF RECHARGE =       0.0000E+00

            IN - OUT =   279838243.4275              IN - OUT =       9.7500E-02

          STORAGE:                                 STORAGE:
          --------                                 --------
      STORAGE CHANGE =   279840348.7077        STORAGE CHANGE =       9.7500E-02

 PERCENT DISCREPANCY IS DIFFERENCE BETWEEN IN-OUT MINUS CHANGE IN STORAGE
 DIVIDED BY THE AVERAGE OF IN AND OUT TIMES 100

 PERCENT DISCREPANCY =          -0.00     PERCENT DISCREPANCY =           0.00






1
  VOLUMETRIC BUDGET FOR AGRICULTURAL FIELDS AT  END OF TIME STEP   30, STRESS PERIOD  14
  ------------------------------------------------------------------------------

     CUMULATIVE VOLUMES      L**3       RATES FOR THIS TIME STEP      L**3/T
     ------------------                 ------------------------

           IN:                                      IN:
           ---                                      ---
           AG WELLS      =  1024023808.0000             AG WELLS      =           0.0000
      DIVERSION SEGMENTS =   548718528.0000        DIVERSION SEGMENTS =           0.0000
           GW IRRIGATION =           0.0000             GW IRRIGATION =           0.0000
           SW IRRIGATION =           0.0000             SW IRRIGATION =           0.0000
        SYSTEM LOSSES GW =           0.0000          SYSTEM LOSSES GW =           0.0000
        SYSTEM LOSSES SW =           0.0000          SYSTEM LOSSES SW =           0.0000

                TOTAL IN =  1572742400.0000                  TOTAL IN =           0.0000

          OUT:                                     OUT:
          ----                                     ----
           AG WELLS      =           0.0000             AG WELLS      =           0.0000
      DIVERSION SEGMENTS =           0.0000        DIVERSION SEGMENTS =           0.0000
           GW IRRIGATION =  1024023808.0000             GW IRRIGATION =           0.0000
           SW IRRIGATION =   548729152.0000             SW IRRIGATION =           0.0000
        SYSTEM LOSSES GW =           0.0000          SYSTEM LOSSES GW =           0.0000
        SYSTEM LOSSES SW =           0.0000          SYSTEM LOSSES SW =           0.0000

               TOTAL OUT =  1572752896.0000                 TOTAL OUT =           0.0000

                IN - OUT =      -10496.0000                  IN - OUT =           0.0000

     PERCENT DISCREPANCY =          -0.00         PERCENT DISCREPANCY =           0.00



1
  VOLUMETRIC BUDGET FOR ENTIRE MODEL AT END OF TIME STEP   30, STRESS PERIOD  14
  ------------------------------------------------------------------------------

     CUMULATIVE VOLUMES      L**3       RATES FOR THIS TIME STEP      L**3/T
     ------------------                 ------------------------

           IN:                                      IN:
           ---                                      ---
             STORAGE     =  1125814528.0000               STORAGE     =           3.4023
       CONSTANT HEAD     =           0.0000         CONSTANT HEAD     =           0.0000
     HEAD DEP BOUNDS     =     9795925.0000       HEAD DEP BOUNDS     =           0.2860
      STREAM LEAKAGE     =   408260064.0000        STREAM LEAKAGE     =          11.2332
        UZF RECHARGE     =   887717248.0000          UZF RECHARGE     =           0.0000
               GW ET     =           0.0000                 GW ET     =           0.0000
     SURFACE LEAKAGE     =           0.0000       SURFACE LEAKAGE     =           0.0000
           AG WELLS      =           0.0000             AG WELLS      =           0.0000

                TOTAL IN =  2431587840.0000                  TOTAL IN =          14.9214

          OUT:                                     OUT:
          ----                                     ----
             STORAGE     =  1026987136.0000               STORAGE     =           3.9300
       CONSTANT HEAD     =           0.0000         CONSTANT HEAD     =           0.0000
     HEAD DEP BOUNDS     =     9928402.0000       HEAD DEP BOUNDS     =           0.2888
      STREAM LEAKAGE     =   370588864.0000        STREAM LEAKAGE     =          10.7028
        UZF RECHARGE     =           0.0000          UZF RECHARGE     =           0.0000
               GW ET     =       56916.5898                 GW ET     =           0.0000
     SURFACE LEAKAGE     =           0.0000       SURFACE LEAKAGE     =           0.0000
           AG WELLS      =  1024023808.0000             AG WELLS      =           0.0000

               TOTAL OUT =  2431585280.0000                 TOTAL OUT =          14.9216

                IN - OUT =        2560.0000                  IN - OUT =      -1.4591E-04

     PERCENT DISCREPANCY =           0.00         PERCENT DISCREPANCY =          -0.00






         TIME SUMMARY AT END OF TIME STEP   30 IN STRESS PERIOD   14
                    SECONDS     MINUTES      HOURS       DAYS        YEARS
                    -----------------------------------------------------------
   TIME STEP LENGTH  87667.      1461.1      24.352      1.0147     2.77799E-03
 STRESS PERIOD TIME 2.63000E+06  43833.      730.56      30.440     8.33397E-02
         TOTAL TIME 3.42763E+07 5.71272E+05  9521.2      396.72      1.0862    
1
1
                            STRESS PERIOD NO.   15, LENGTH =   2630000.    
                            -----------------------------------------------

                              NUMBER OF TIME STEPS =    30

                               MULTIPLIER FOR DELT =     1.000

                            INITIAL TIME STEP SIZE =   87666.66    

 REUSING NON-PARAMETER GHB CELLS FROM LAST STRESS PERIOD

      2 GHB CELLS

 REUSING STREAM SEGMENT DATA FROM LAST STRESS PERIOD



            AREAL INFILTRATION RATE
 READING ON UNIT   19 WITH FORMAT: (FREE)              

            1           2           3           4           5           6           7           8           9          10
 ........................................................................................................................
   1   1.0000E-10  2.0000E-10   0.000       0.000       0.000       0.000       0.000       0.000       0.000       0.000    
   2   2.0000E-10  1.0000E-10  2.0000E-10   0.000       0.000      8.0000E-10  8.0000E-10  5.0000E-10   0.000       0.000    
   3    0.000      5.0000E-10  1.0000E-10  1.0000E-10  8.0000E-10  8.0000E-10  5.0000E-10  5.0000E-10   0.000       0.000    
   4   8.0000E-10  5.0000E-10  1.0000E-10  1.0000E-10  1.0000E-10  1.0000E-10  1.0000E-10  1.0000E-10  2.0000E-10   0.000    
   5   8.0000E-10  5.0000E-10  1.0000E-10  1.0000E-10  1.0000E-10  1.0000E-10  1.0000E-10  1.0000E-10  1.0000E-10  1.0000E-10
   6   8.0000E-10  5.0000E-10  5.0000E-10  2.0000E-10  2.0000E-10  1.0000E-10  1.0000E-10  1.0000E-10  1.0000E-10  5.0000E-10
   7   8.0000E-10  5.0000E-10  5.0000E-10  2.0000E-10  2.0000E-10  1.0000E-10  1.0000E-10  2.0000E-10  2.0000E-10   0.000    
   8    0.000      5.0000E-10  5.0000E-10  2.0000E-10  2.0000E-10  1.0000E-10  1.0000E-10  2.0000E-10  5.0000E-10   0.000    
   9    0.000      5.0000E-10  5.0000E-10  2.0000E-10  2.0000E-10  1.0000E-10  1.0000E-10  2.0000E-10  5.0000E-10   0.000    
  10    0.000      5.0000E-10  5.0000E-10  2.0000E-10  2.0000E-10  1.0000E-10  1.0000E-10  2.0000E-10  5.0000E-10  8.0000E-10
  11    0.000      1.0000E-10  1.0000E-10  1.0000E-10  1.0000E-10  1.0000E-10  1.0000E-10  2.0000E-10  5.0000E-10   0.000    
  12   1.0000E-10  1.0000E-10  1.0000E-10  1.0000E-10  1.0000E-10  1.0000E-10  1.0000E-10  1.0000E-10  2.0000E-10   0.000    
  13   1.0000E-10  1.0000E-10  2.0000E-10  2.0000E-10  2.0000E-10  2.0000E-10  2.0000E-10  1.0000E-10  1.0000E-10   0.000    
  14    0.000      2.0000E-10  5.0000E-10  5.0000E-10  5.0000E-10  5.0000E-10  5.0000E-10  2.0000E-10  1.0000E-10   0.000    
  15    0.000       0.000      8.0000E-10  8.0000E-10  8.0000E-10  8.0000E-10   0.000       0.000       0.000       0.000    

                  ET RATE =  5.000000E-10

 USING ET EXTINCTION DEPTH FROM PREVIOUS STRESS PERIOD. CURRENT PERIOD IS:      15

 USING EXTINCTION WATER CONTENT FROM PREVIOUS STRESS PERIOD. CURRENT PERIOD IS:      15

 USING AIR ENTRY PRESSURE FROM PREVIOUS STRESS PERIOD. CURRENT PERIOD IS:      15

 USING ROOT PRESSURE HEAD FROM PREVIOUS STRESS PERIOD. CURRENT PERIOD IS:      15

 USING ROOT ACTIVITY FROM PREVIOUS STRESS PERIOD. CURRENT PERIOD IS:      15

 PROCESSING AG STRESS PERIOD DATA

 READING AG STRESS PERIOD DATA

 READING IRRIGATION SEGMENT

 READING IRRIGATION WELL

 READING SUPPLEMENTAL WELL

 END PROCESSING AG STRESS PERIOD DATA OPTIONS
 
 SOLVING FOR HEAD 
                                                   Max.-Head-Change                         Max.-Flux-Residual
  Residual-Control   Outer-Iter.   Inner-Iter.     Column Row Layer    Maximum-Head-Change  Column Row Layer    Maximum-Flux-Residual          L2-NORM 
          0                 1           2             4    7     1      -0.9508767529E-02       4    7    1        -0.5025555572E+00      0.1132949311E+01
          0                 2           2             4    7     1       0.9249407913E-03       4    7    1         0.5025535327E-01      0.1132941836E+00
          0                 3           1             4    7     1      -0.6298506803E-04       4    7    1        -0.3517878172E-02      0.7930524300E-02

    ------------------------------------------------
       NWT REQUIRED            3 OUTER ITERATIONS 
       AND A TOTAL OF          5 INNER ITERATIONS.
    ------------------------------------------------

 NO OUTPUT CONTROL FOR STRESS PERIOD   15   TIME STEP    1
 
 SOLVING FOR HEAD 
                                                   Max.-Head-Change                         Max.-Flux-Residual
  Residual-Control   Outer-Iter.   Inner-Iter.     Column Row Layer    Maximum-Head-Change  Column Row Layer    Maximum-Flux-Residual          L2-NORM 
          0                 1           2             4    7     1      -0.9348976275E-02       4    7    1        -0.4940738257E+00      0.1118592076E+01
          0                 2           2             4    7     1       0.9093963110E-03       4    7    1         0.4940718757E-01      0.1118595916E+00
          0                 3           1             4    7     1      -0.6192532132E-04       4    7    1        -0.3458506485E-02      0.7829491840E-02

    ------------------------------------------------
       NWT REQUIRED            3 OUTER ITERATIONS 
       AND A TOTAL OF          5 INNER ITERATIONS.
    ------------------------------------------------

 NO OUTPUT CONTROL FOR STRESS PERIOD   15   TIME STEP    2
 
 SOLVING FOR HEAD 
                                                   Max.-Head-Change                         Max.-Flux-Residual
  Residual-Control   Outer-Iter.   Inner-Iter.     Column Row Layer    Maximum-Head-Change  Column Row Layer    Maximum-Flux-Residual          L2-NORM 
          0                 1           2             4    7     1      -0.9192585315E-02       4    7    1        -0.4857739505E+00      0.1104815503E+01
          0                 2           2             4    7     1       0.8942279491E-03       4    7    1         0.4857720720E-01      0.1104962194E+00
          0                 3           1             4    7     1      -0.6089363555E-04       4    7    1        -0.3400407759E-02      0.7734344793E-02

    ------------------------------------------------
       NWT REQUIRED            3 OUTER ITERATIONS 
       AND A TOTAL OF          5 INNER ITERATIONS.
    ------------------------------------------------

 NO OUTPUT CONTROL FOR STRESS PERIOD   15   TIME STEP    3
 
 SOLVING FOR HEAD 
                                                   Max.-Head-Change                         Max.-Flux-Residual
  Residual-Control   Outer-Iter.   Inner-Iter.     Column Row Layer    Maximum-Head-Change  Column Row Layer    Maximum-Flux-Residual          L2-NORM 
          0                 1           2             4    7     1      -0.9039095039E-02       4    7    1        -0.4776332690E+00      0.1089546160E+01
          0                 2           2             4    7     1       0.8792547433E-03       4    7    1         0.4776314586E-01      0.1089171713E+00
          0                 3           1             4    7     1      -0.5987401420E-04       4    7    1        -0.3343423357E-02      0.7623927925E-02

    ------------------------------------------------
       NWT REQUIRED            3 OUTER ITERATIONS 
       AND A TOTAL OF          5 INNER ITERATIONS.
    ------------------------------------------------

 NO OUTPUT CONTROL FOR STRESS PERIOD   15   TIME STEP    4
 
 SOLVING FOR HEAD 
                                                   Max.-Head-Change                         Max.-Flux-Residual
  Residual-Control   Outer-Iter.   Inner-Iter.     Column Row Layer    Maximum-Head-Change  Column Row Layer    Maximum-Flux-Residual          L2-NORM 
          0                 1           2             4    7     1      -0.8889112196E-02       4    7    1        -0.4696772128E+00      0.1074613410E+01
          0                 2           2             4    7     1       0.8646656382E-03       4    7    1         0.4696754677E-01      0.1074583708E+00
          0                 3           1             4    7     1      -0.5888054950E-04       4    7    1        -0.3287731350E-02      0.7522195501E-02

    ------------------------------------------------
       NWT REQUIRED            3 OUTER ITERATIONS 
       AND A TOTAL OF          5 INNER ITERATIONS.
    ------------------------------------------------

 NO OUTPUT CONTROL FOR STRESS PERIOD   15   TIME STEP    5
 
 SOLVING FOR HEAD 
                                                   Max.-Head-Change                         Max.-Flux-Residual
  Residual-Control   Outer-Iter.   Inner-Iter.     Column Row Layer    Maximum-Head-Change  Column Row Layer    Maximum-Flux-Residual          L2-NORM 
          0                 1           2             4    7     1      -0.8741952655E-02       4    7    1        -0.4618710597E+00      0.1059970286E+01
          0                 2           2             4    7     1       0.8503511204E-03       4    7    1         0.4618693777E-01      0.1059944316E+00
          0                 3           1             4    7     1      -0.5790578318E-04       4    7    1        -0.3233088623E-02      0.7419361910E-02

    ------------------------------------------------
       NWT REQUIRED            3 OUTER ITERATIONS 
       AND A TOTAL OF          5 INNER ITERATIONS.
    ------------------------------------------------

 NO OUTPUT CONTROL FOR STRESS PERIOD   15   TIME STEP    6
 
 SOLVING FOR HEAD 
                                                   Max.-Head-Change                         Max.-Flux-Residual
  Residual-Control   Outer-Iter.   Inner-Iter.     Column Row Layer    Maximum-Head-Change  Column Row Layer    Maximum-Flux-Residual          L2-NORM 
          0                 1           2             4    7     1      -0.8597815164E-02       4    7    1        -0.4542261317E+00      0.1045606928E+01
          0                 2           2             4    7     1       0.8363305622E-03       4    7    1         0.4542245103E-01      0.1045584802E+00
          0                 3           1             4    7     1      -0.5695103397E-04       4    7    1        -0.3179574470E-02      0.7318937183E-02

    ------------------------------------------------
       NWT REQUIRED            3 OUTER ITERATIONS 
       AND A TOTAL OF          5 INNER ITERATIONS.
    ------------------------------------------------

 NO OUTPUT CONTROL FOR STRESS PERIOD   15   TIME STEP    7
 
 SOLVING FOR HEAD 
                                                   Max.-Head-Change                         Max.-Flux-Residual
  Residual-Control   Outer-Iter.   Inner-Iter.     Column Row Layer    Maximum-Head-Change  Column Row Layer    Maximum-Flux-Residual          L2-NORM 
          0                 1           2             4    7     1      -0.8456619513E-02       4    7    1        -0.4467378946E+00      0.1031512221E+01
          0                 2           2             4    7     1       0.8225961615E-03       4    7    1         0.4467363315E-01      0.1031462697E+00
          0                 3           1             4    7     1      -0.5601577126E-04       4    7    1        -0.3127157151E-02      0.7220030353E-02

    ------------------------------------------------
       NWT REQUIRED            3 OUTER ITERATIONS 
       AND A TOTAL OF          5 INNER ITERATIONS.
    ------------------------------------------------

 NO OUTPUT CONTROL FOR STRESS PERIOD   15   TIME STEP    8
 
 SOLVING FOR HEAD 
                                                   Max.-Head-Change                         Max.-Flux-Residual
  Residual-Control   Outer-Iter.   Inner-Iter.     Column Row Layer    Maximum-Head-Change  Column Row Layer    Maximum-Flux-Residual          L2-NORM 
          0                 1           2             4    7     1      -0.8318288683E-02       4    7    1        -0.4394021898E+00      0.1017688701E+01
          0                 2           2             4    7     1       0.8091404257E-03       4    7    1         0.4394006822E-01      0.1017670753E+00
          0                 3           1             4    7     1      -0.5509948501E-04       4    7    1        -0.3075807515E-02      0.7123524934E-02

    ------------------------------------------------
       NWT REQUIRED            3 OUTER ITERATIONS 
       AND A TOTAL OF          5 INNER ITERATIONS.
    ------------------------------------------------

 NO OUTPUT CONTROL FOR STRESS PERIOD   15   TIME STEP    9
 
 SOLVING FOR HEAD 
                                                   Max.-Head-Change                         Max.-Flux-Residual
  Residual-Control   Outer-Iter.   Inner-Iter.     Column Row Layer    Maximum-Head-Change  Column Row Layer    Maximum-Flux-Residual          L2-NORM 
          0                 1           2             4    7     1      -0.8182749066E-02       4    7    1        -0.4322150237E+00      0.1004128176E+01
          0                 2           2             4    7     1       0.7959561966E-03       4    7    1         0.4322135698E-01      0.1004112546E+00
          0                 3           1             4    7     1      -0.5420168720E-04       4    7    1        -0.3025497681E-02      0.7028653182E-02

    ------------------------------------------------
       NWT REQUIRED            3 OUTER ITERATIONS 
       AND A TOTAL OF          5 INNER ITERATIONS.
    ------------------------------------------------

 NO OUTPUT CONTROL FOR STRESS PERIOD   15   TIME STEP   10
 
 SOLVING FOR HEAD 
                                                   Max.-Head-Change                         Max.-Flux-Residual
  Residual-Control   Outer-Iter.   Inner-Iter.     Column Row Layer    Maximum-Head-Change  Column Row Layer    Maximum-Flux-Residual          L2-NORM 
          0                 1           2             4    7     1      -0.8049922597E-02       4    7    1        -0.4251725799E+00      0.9908076949E+00
          0                 2           2             4    7     1       0.7830358790E-03       4    7    1         0.4251711775E-01      0.9907936061E-01
          0                 3           1             4    7     1      -0.5332186070E-04       4    7    1        -0.2976200867E-02      0.6935372458E-02

    ------------------------------------------------
       NWT REQUIRED            3 OUTER ITERATIONS 
       AND A TOTAL OF          5 INNER ITERATIONS.
    ------------------------------------------------

 NO OUTPUT CONTROL FOR STRESS PERIOD   15   TIME STEP   11
 
 SOLVING FOR HEAD 
                                                   Max.-Head-Change                         Max.-Flux-Residual
  Residual-Control   Outer-Iter.   Inner-Iter.     Column Row Layer    Maximum-Head-Change  Column Row Layer    Maximum-Flux-Residual          L2-NORM 
          0                 1           2             4    7     1      -0.7919741830E-02       4    7    1        -0.4182708107E+00      0.9777312275E+00
          0                 2           2             4    7     1       0.7703729133E-03       4    7    1         0.4182694579E-01      0.9777191813E-01
          0                 3           1             4    7     1      -0.5245955915E-04       4    7    1        -0.2927888756E-02      0.6843920504E-02

    ------------------------------------------------
       NWT REQUIRED            3 OUTER ITERATIONS 
       AND A TOTAL OF          5 INNER ITERATIONS.
    ------------------------------------------------

 NO OUTPUT CONTROL FOR STRESS PERIOD   15   TIME STEP   12
 
 SOLVING FOR HEAD 
                                                   Max.-Head-Change                         Max.-Flux-Residual
  Residual-Control   Outer-Iter.   Inner-Iter.     Column Row Layer    Maximum-Head-Change  Column Row Layer    Maximum-Flux-Residual          L2-NORM 
          0                 1           2             4    7     1      -0.7792133152E-02       4    7    1        -0.4115062192E+00      0.9648933603E+00
          0                 2           2             4    7     1       0.7579601385E-03       4    7    1         0.4115049139E-01      0.9648827145E-01
          0                 3           1             4    7     1      -0.5161429405E-04       4    7    1        -0.2880536868E-02      0.6754089873E-02

    ------------------------------------------------
       NWT REQUIRED            3 OUTER ITERATIONS 
       AND A TOTAL OF          5 INNER ITERATIONS.
    ------------------------------------------------

 NO OUTPUT CONTROL FOR STRESS PERIOD   15   TIME STEP   13
 
 SOLVING FOR HEAD 
                                                   Max.-Head-Change                         Max.-Flux-Residual
  Residual-Control   Outer-Iter.   Inner-Iter.     Column Row Layer    Maximum-Head-Change  Column Row Layer    Maximum-Flux-Residual          L2-NORM 
          0                 1           2             4    7     1      -0.7667033978E-02       4    7    1        -0.4048749885E+00      0.9522866611E+00
          0                 2           2             4    7     1       0.7457914680E-03       4    7    1         0.4048737291E-01      0.9522772943E-01
          0                 3           1             4    7     1      -0.5078565217E-04       4    7    1        -0.2834118518E-02      0.6665884489E-02

    ------------------------------------------------
       NWT REQUIRED            3 OUTER ITERATIONS 
       AND A TOTAL OF          5 INNER ITERATIONS.
    ------------------------------------------------

 NO OUTPUT CONTROL FOR STRESS PERIOD   15   TIME STEP   14
 
 SOLVING FOR HEAD 
                                                   Max.-Head-Change                         Max.-Flux-Residual
  Residual-Control   Outer-Iter.   Inner-Iter.     Column Row Layer    Maximum-Head-Change  Column Row Layer    Maximum-Flux-Residual          L2-NORM 
          0                 1           2             4    7     1      -0.7544377364E-02       4    7    1        -0.3983738738E+00      0.9399045963E+00
          0                 2           2             4    7     1       0.7338603890E-03       4    7    1         0.3983726582E-01      0.9398962142E-01
          0                 3           1             4    7     1      -0.4997318951E-04       4    7    1        -0.2788610973E-02      0.6579211989E-02

    ------------------------------------------------
       NWT REQUIRED            3 OUTER ITERATIONS 
       AND A TOTAL OF          5 INNER ITERATIONS.
    ------------------------------------------------

 NO OUTPUT CONTROL FOR STRESS PERIOD   15   TIME STEP   15
 
 SOLVING FOR HEAD 
                                                   Max.-Head-Change                         Max.-Flux-Residual
  Residual-Control   Outer-Iter.   Inner-Iter.     Column Row Layer    Maximum-Head-Change  Column Row Layer    Maximum-Flux-Residual          L2-NORM 
          0                 1           2             4    7     1      -0.7424106474E-02       4    7    1        -0.3919994040E+00      0.9277539402E+00
          0                 2           2             4    7     1       0.7221613738E-03       4    7    1         0.3919982310E-01      0.9277464228E-01
          0                 3           1             4    7     1      -0.4917652906E-04       4    7    1        -0.2743989899E-02      0.6494185360E-02

    ------------------------------------------------
       NWT REQUIRED            3 OUTER ITERATIONS 
       AND A TOTAL OF          5 INNER ITERATIONS.
    ------------------------------------------------

 NO OUTPUT CONTROL FOR STRESS PERIOD   15   TIME STEP   16
 
 SOLVING FOR HEAD 
                                                   Max.-Head-Change                         Max.-Flux-Residual
  Residual-Control   Outer-Iter.   Inner-Iter.     Column Row Layer    Maximum-Head-Change  Column Row Layer    Maximum-Flux-Residual          L2-NORM 
          0                 1           2             4    7     1      -0.7306429275E-02       4    7    1        -0.3857634659E+00      0.9158179796E+00
          0                 2           2             4    7     1       0.7107146511E-03       4    7    1         0.3857623334E-01      0.9158111199E-01
          0                 3           1             4    7     1      -0.4839704918E-04       4    7    1        -0.2700338559E-02      0.6410623618E-02

    ------------------------------------------------
       NWT REQUIRED            3 OUTER ITERATIONS 
       AND A TOTAL OF          5 INNER ITERATIONS.
    ------------------------------------------------

 NO OUTPUT CONTROL FOR STRESS PERIOD   15   TIME STEP   17
 
 SOLVING FOR HEAD 
                                                   Max.-Head-Change                         Max.-Flux-Residual
  Residual-Control   Outer-Iter.   Inner-Iter.     Column Row Layer    Maximum-Head-Change  Column Row Layer    Maximum-Flux-Residual          L2-NORM 
          0                 1           2             4    7     1      -0.7190730828E-02       4    7    1        -0.3796323412E+00      0.9040872001E+00
          0                 2           2             4    7     1       0.6994604049E-03       4    7    1         0.3796312478E-01      0.9040809828E-01
          0                 3           1             4    7     1      -0.4763067628E-04       4    7    1        -0.2657420911E-02      0.6328505357E-02

    ------------------------------------------------
       NWT REQUIRED            3 OUTER ITERATIONS 
       AND A TOTAL OF          5 INNER ITERATIONS.
    ------------------------------------------------

 NO OUTPUT CONTROL FOR STRESS PERIOD   15   TIME STEP   18
 
 SOLVING FOR HEAD 
                                                   Max.-Head-Change                         Max.-Flux-Residual
  Residual-Control   Outer-Iter.   Inner-Iter.     Column Row Layer    Maximum-Head-Change  Column Row Layer    Maximum-Flux-Residual          L2-NORM 
          0                 1           2             4    7     1      -0.7077506264E-02       4    7    1        -0.3736334803E+00      0.8925607270E+00
          0                 2           2             4    7     1       0.6884467974E-03       4    7    1         0.3736324245E-01      0.8925549873E-01
          0                 3           1             4    7     1      -0.4688068969E-04       4    7    1        -0.2615429092E-02      0.6247820959E-02

    ------------------------------------------------
       NWT REQUIRED            3 OUTER ITERATIONS 
       AND A TOTAL OF          5 INNER ITERATIONS.
    ------------------------------------------------

 NO OUTPUT CONTROL FOR STRESS PERIOD   15   TIME STEP   19
 
 SOLVING FOR HEAD 
                                                   Max.-Head-Change                         Max.-Flux-Residual
  Residual-Control   Outer-Iter.   Inner-Iter.     Column Row Layer    Maximum-Head-Change  Column Row Layer    Maximum-Flux-Residual          L2-NORM 
          0                 1           2             4    7     1      -0.6966147668E-02       4    7    1        -0.3677332219E+00      0.8812351881E+00
          0                 2           2             4    7     1       0.6776146966E-03       4    7    1         0.3677322024E-01      0.8812299285E-01
          0                 3           1             4    7     1      -0.4614306312E-04       4    7    1        -0.2574127483E-02      0.6168558251E-02

    ------------------------------------------------
       NWT REQUIRED            3 OUTER ITERATIONS 
       AND A TOTAL OF          5 INNER ITERATIONS.
    ------------------------------------------------

 NO OUTPUT CONTROL FOR STRESS PERIOD   15   TIME STEP   20
 
 SOLVING FOR HEAD 
                                                   Max.-Head-Change                         Max.-Flux-Residual
  Residual-Control   Outer-Iter.   Inner-Iter.     Column Row Layer    Maximum-Head-Change  Column Row Layer    Maximum-Flux-Residual          L2-NORM 
          0                 1           2             4    7     1      -0.6857155205E-02       4    7    1        -0.3619593786E+00      0.8701050715E+00
          0                 2           2             4    7     1       0.6670127531E-03       4    7    1         0.3619583939E-01      0.8701003526E-01
          0                 3           1             4    7     1      -0.4542111000E-04       4    7    1        -0.2533710776E-02      0.6090671695E-02

    ------------------------------------------------
       NWT REQUIRED            3 OUTER ITERATIONS 
       AND A TOTAL OF          5 INNER ITERATIONS.
    ------------------------------------------------

 NO OUTPUT CONTROL FOR STRESS PERIOD   15   TIME STEP   21
 
 SOLVING FOR HEAD 
                                                   Max.-Head-Change                         Max.-Flux-Residual
  Residual-Control   Outer-Iter.   Inner-Iter.     Column Row Layer    Maximum-Head-Change  Column Row Layer    Maximum-Flux-Residual          L2-NORM 
          0                 1           2             4    7     1      -0.6750200804E-02       4    7    1        -0.3562933844E+00      0.8591734684E+00
          0                 2           2             4    7     1       0.6566090565E-03       4    7    1         0.3562924334E-01      0.8591691373E-01
          0                 3           1             4    7     1      -0.4471265625E-04       4    7    1        -0.2494049010E-02      0.6014160186E-02

    ------------------------------------------------
       NWT REQUIRED            3 OUTER ITERATIONS 
       AND A TOTAL OF          5 INNER ITERATIONS.
    ------------------------------------------------

 NO OUTPUT CONTROL FOR STRESS PERIOD   15   TIME STEP   22
 
 SOLVING FOR HEAD 
                                                   Max.-Head-Change                         Max.-Flux-Residual
  Residual-Control   Outer-Iter.   Inner-Iter.     Column Row Layer    Maximum-Head-Change  Column Row Layer    Maximum-Flux-Residual          L2-NORM 
          0                 1           2             4    7     1      -0.6645493559E-02       4    7    1        -0.3507478947E+00      0.8484279988E+00
          0                 2           2             4    7     1       0.6464239444E-03       4    7    1         0.3507469758E-01      0.8484240145E-01
          0                 3           1             4    7     1      -0.4401908759E-04       4    7    1        -0.2455230770E-02      0.5938922986E-02

    ------------------------------------------------
       NWT REQUIRED            3 OUTER ITERATIONS 
       AND A TOTAL OF          5 INNER ITERATIONS.
    ------------------------------------------------

 NO OUTPUT CONTROL FOR STRESS PERIOD   15   TIME STEP   23
 
 SOLVING FOR HEAD 
                                                   Max.-Head-Change                         Max.-Flux-Residual
  Residual-Control   Outer-Iter.   Inner-Iter.     Column Row Layer    Maximum-Head-Change  Column Row Layer    Maximum-Flux-Residual          L2-NORM 
          0                 1           2             4    7     1      -0.6542432470E-02       4    7    1        -0.3452892534E+00      0.8378634928E+00
          0                 2           2             4    7     1       0.6363989566E-03       4    7    1         0.3452883656E-01      0.8378594463E-01
          0                 3           1             4    7     1      -0.4333642271E-04       4    7    1        -0.2417020458E-02      0.5864975204E-02

    ------------------------------------------------
       NWT REQUIRED            3 OUTER ITERATIONS 
       AND A TOTAL OF          5 INNER ITERATIONS.
    ------------------------------------------------

 NO OUTPUT CONTROL FOR STRESS PERIOD   15   TIME STEP   24
 
 SOLVING FOR HEAD 
                                                   Max.-Head-Change                         Max.-Flux-Residual
  Residual-Control   Outer-Iter.   Inner-Iter.     Column Row Layer    Maximum-Head-Change  Column Row Layer    Maximum-Flux-Residual          L2-NORM 
          0                 1           2             4    7     1      -0.6441531010E-02       4    7    1        -0.3399456286E+00      0.8274845879E+00
          0                 2           2             4    7     1       0.6265840397E-03       4    7    1         0.3399447706E-01      0.8274811082E-01
          0                 3           1             4    7     1      -0.4266806236E-04       4    7    1        -0.2379615224E-02      0.5792346743E-02

    ------------------------------------------------
       NWT REQUIRED            3 OUTER ITERATIONS 
       AND A TOTAL OF          5 INNER ITERATIONS.
    ------------------------------------------------

 NO OUTPUT CONTROL FOR STRESS PERIOD   15   TIME STEP   25
 
 SOLVING FOR HEAD 
                                                   Max.-Head-Change                         Max.-Flux-Residual
  Residual-Control   Outer-Iter.   Inner-Iter.     Column Row Layer    Maximum-Head-Change  Column Row Layer    Maximum-Flux-Residual          L2-NORM 
          0                 1           2             4    7     1      -0.6342455115E-02       4    7    1        -0.3346991467E+00      0.8172746590E+00
          0                 2           2             4    7     1       0.6169466998E-03       4    7    1         0.3346983175E-01      0.8172713747E-01
          0                 3           1             4    7     1      -0.4201179531E-04       4    7    1        -0.2342890028E-02      0.5720883221E-02

    ------------------------------------------------
       NWT REQUIRED            3 OUTER ITERATIONS 
       AND A TOTAL OF          5 INNER ITERATIONS.
    ------------------------------------------------

 NO OUTPUT CONTROL FOR STRESS PERIOD   15   TIME STEP   26
 
 SOLVING FOR HEAD 
                                                   Max.-Head-Change                         Max.-Flux-Residual
  Residual-Control   Outer-Iter.   Inner-Iter.     Column Row Layer    Maximum-Head-Change  Column Row Layer    Maximum-Flux-Residual          L2-NORM 
          0                 1           2             4    7     1      -0.6245162126E-02       4    7    1        -0.3295473190E+00      0.8072339802E+00
          0                 2           2             4    7     1       0.6074827861E-03       4    7    1         0.3295465177E-01      0.8072309876E-01
          0                 3           1             4    7     1      -0.4136733707E-04       4    7    1        -0.2306827374E-02      0.5650591952E-02

    ------------------------------------------------
       NWT REQUIRED            3 OUTER ITERATIONS 
       AND A TOTAL OF          5 INNER ITERATIONS.
    ------------------------------------------------

 NO OUTPUT CONTROL FOR STRESS PERIOD   15   TIME STEP   27
 
 SOLVING FOR HEAD 
                                                   Max.-Head-Change                         Max.-Flux-Residual
  Residual-Control   Outer-Iter.   Inner-Iter.     Column Row Layer    Maximum-Head-Change  Column Row Layer    Maximum-Flux-Residual          L2-NORM 
          0                 1           2             4    7     1      -0.6149880079E-02       4    7    1        -0.3245027650E+00      0.7973790208E+00
          0                 2           2             4    7     1       0.5982144803E-03       4    7    1         0.3245019903E-01      0.7973760711E-01
          0                 3           1             4    7     1      -0.4073619927E-04       4    7    1        -0.2271515644E-02      0.5581603185E-02

    ------------------------------------------------
       NWT REQUIRED            3 OUTER ITERATIONS 
       AND A TOTAL OF          5 INNER ITERATIONS.
    ------------------------------------------------

 NO OUTPUT CONTROL FOR STRESS PERIOD   15   TIME STEP   28
 
 SOLVING FOR HEAD 
                                                   Max.-Head-Change                         Max.-Flux-Residual
  Residual-Control   Outer-Iter.   Inner-Iter.     Column Row Layer    Maximum-Head-Change  Column Row Layer    Maximum-Flux-Residual          L2-NORM 
          0                 1           2             4    7     1      -0.6055906140E-02       4    7    1        -0.3195328141E+00      0.9594753188E+00
          0                 2           2             7   13     1      -0.1339177834E-02       7   13    1        -0.7424578173E-01      0.1195704137E+00
          0                 3           1             7   13     1       0.9116710116E-04       7   13    1         0.5195756363E-02      0.8316563264E-02

    ------------------------------------------------
       NWT REQUIRED            3 OUTER ITERATIONS 
       AND A TOTAL OF          5 INNER ITERATIONS.
    ------------------------------------------------

 NO OUTPUT CONTROL FOR STRESS PERIOD   15   TIME STEP   29
 
 SOLVING FOR HEAD 
                                                   Max.-Head-Change                         Max.-Flux-Residual
  Residual-Control   Outer-Iter.   Inner-Iter.     Column Row Layer    Maximum-Head-Change  Column Row Layer    Maximum-Flux-Residual          L2-NORM 
          0                 1           2             4   13     1       0.2237410644E-01       4   13    1         0.1290441597E+01      0.2477402223E+01
          0                 2           2             4   13     1      -0.2152277169E-02       4   13    1        -0.1276345503E+00      0.2413100462E+00
          0                 3           2             4   13     1       0.1443014621E-03       4   13    1         0.8798452997E-02      0.1629309369E-01
          0                 4           1             4   13     1      -0.5605347458E-05       4   13    1        -0.3514327000E-03      0.6285541069E-03

    ------------------------------------------------
       NWT REQUIRED            4 OUTER ITERATIONS 
       AND A TOTAL OF          7 INNER ITERATIONS.
    ------------------------------------------------

 NO OUTPUT CONTROL FOR STRESS PERIOD   15   TIME STEP   30



 STREAM LISTING     PERIOD     15   STEP       30

 LAYER ROW COL. STREAM  RCH.  FLOW INTO     FLOW TO   FLOW OUT OF   OVRLND.     DIRECT     STREAM       STREAM     STREAM     STREAM   STREAMBED  STREAMBED
                SEG.NO.  NO.  STRM. RCH.    AQUIFER    STRM. RCH.    RUNOFF     PRECIP       ET          HEAD       DEPTH      WIDTH   CONDCTNC.   GRADIENT

   1    1    1     1     1    7.3501E+01  4.1745E-01   7.3084E+01  0.000E+00  0.000E+00  0.000E+00  1.09473E+03  1.681E+00  1.982E+01  8.917E-02  1.560E+00
   1    2    2     1     2    7.3084E+01  6.4666E-01   7.2437E+01  0.000E+00  0.000E+00  0.000E+00  1.08973E+03  1.675E+00  1.976E+01  1.383E-01  1.558E+00
   1    3    3     1     3    7.2437E+01  5.5167E-01   7.1885E+01  0.000E+00  0.000E+00  0.000E+00  1.08409E+03  1.669E+00  1.969E+01  1.182E-01  1.556E+00
   1    3    4     1     4    7.1885E+01  5.0815E-01   7.1377E+01  0.000E+00  0.000E+00  0.000E+00  1.07907E+03  1.663E+00  1.963E+01  1.090E-01  1.554E+00
   1    4    5     2     1    6.9377E+01  4.0746E-01   6.8970E+01  0.000E+00  0.000E+00  0.000E+00  1.07416E+03  2.224E+00  1.200E+01  7.800E-02  1.741E+00
   1    5    6     2     2    6.8970E+01  3.1301E-01   6.8657E+01  0.000E+00  0.000E+00  0.000E+00  1.06873E+03  2.217E+00  1.200E+01  6.000E-02  1.739E+00
   1    6    6     2     3    6.8657E+01  3.1265E-01   6.8344E+01  0.000E+00  0.000E+00  0.000E+00  1.06400E+03  2.211E+00  1.200E+01  6.000E-02  1.737E+00
   1    7    6     2     4    6.8344E+01  3.1229E-01   6.8032E+01  0.000E+00  0.000E+00  0.000E+00  1.05928E+03  2.205E+00  1.200E+01  6.000E-02  1.735E+00
   1    8    6     2     5    6.8032E+01  3.1192E-01   6.7720E+01  0.000E+00  0.000E+00  0.000E+00  1.05456E+03  2.199E+00  1.200E+01  6.000E-02  1.733E+00
   1    3    5     3     1    2.0000E+00  2.8252E-01   1.7175E+00  0.000E+00  0.000E+00  0.000E+00  1.07555E+03  1.909E+00  9.636E+00  7.227E-02  1.955E+00
   1    3    6     3     2    1.7175E+00  2.4905E-01   1.4684E+00  0.000E+00  0.000E+00  0.000E+00  1.07264E+03  1.727E+00  8.909E+00  6.682E-02  1.864E+00
   1    3    7     3     3    1.4684E+00  1.9718E-01   1.2712E+00  0.000E+00  0.000E+00  0.000E+00  1.06987E+03  1.555E+00  8.218E+00  5.547E-02  1.777E+00
   1    4    8     3     4    1.2712E+00  2.2567E-01   1.0456E+00  0.000E+00  0.000E+00  0.000E+00  1.06682E+03  1.364E+00  7.455E+00  6.709E-02  1.682E+00
   1    5    8     3     5    1.0456E+00  1.5790E-01   8.8768E-01  0.000E+00  0.000E+00  0.000E+00  1.06362E+03  1.164E+00  6.655E+00  4.991E-02  1.582E+00
   1    6    8     3     6    8.8768E-01  5.5980E-02   8.3170E-01  0.000E+00  0.000E+00  0.000E+00  1.06158E+03  1.036E+00  6.145E+00  1.844E-02  1.518E+00
   1    5   10     4     1    1.0000E+01  9.0919E-02   9.9091E+00  0.000E+00  0.000E+00  0.000E+00  1.07836E+03  6.368E-01  1.000E+01  2.500E-02  1.212E+00
   1    5    9     4     2    9.9091E+00  1.8158E-01   9.7275E+00  0.000E+00  0.000E+00  0.000E+00  1.07154E+03  6.315E-01  1.000E+01  5.000E-02  1.211E+00
   1    6    8     4     3    9.7275E+00  1.2689E-01   9.6006E+00  0.000E+00  0.000E+00  0.000E+00  1.06381E+03  6.256E-01  1.000E+01  3.500E-02  1.209E+00
   1    6    8     5     1    1.0432E+01  2.2686E-01   1.0205E+01  0.000E+00  0.000E+00  0.000E+00  1.05868E+03  6.790E-01  1.542E+01  6.166E-02  1.226E+00
   1    7    7     5     2    1.0205E+01  2.7894E-01   9.9265E+00  0.000E+00  0.000E+00  0.000E+00  1.05417E+03  6.732E-01  1.519E+01  7.594E-02  1.224E+00
   1    8    7     5     3    9.9265E+00  1.9221E-01   9.7343E+00  0.000E+00  0.000E+00  0.000E+00  1.04992E+03  6.676E-01  1.497E+01  5.241E-02  1.223E+00
   1    8    6     5     4    9.7343E+00  1.3577E-01   9.5985E+00  0.000E+00  0.000E+00  0.000E+00  1.04691E+03  6.637E-01  1.482E+01  3.706E-02  1.221E+00
   1    9    6     6     1    7.7318E+01  3.2406E-01   7.6994E+01  0.000E+00  0.000E+00  0.000E+00  1.04513E+03  2.401E+00  1.200E+01  6.000E-02  1.800E+00
   1   10    7     6     2    7.6994E+01  3.2370E-01   7.6671E+01  0.000E+00  0.000E+00  0.000E+00  1.04058E+03  2.395E+00  1.200E+01  6.000E-02  1.798E+00
   1   11    7     6     3    7.6671E+01  3.2333E-01   7.6347E+01  0.000E+00  0.000E+00  0.000E+00  1.03603E+03  2.389E+00  1.200E+01  6.000E-02  1.796E+00
   1   12    7     6     4    7.6347E+01  3.2297E-01   7.6024E+01  0.000E+00  0.000E+00  0.000E+00  1.03147E+03  2.383E+00  1.200E+01  6.000E-02  1.794E+00
   1   13    7     6     5    7.6024E+01  3.0576E-02   7.5994E+01  0.000E+00  0.000E+00  0.000E+00  1.02829E+03  2.380E+00  1.200E+01  2.400E-02  4.247E-01
   1   14    9     7     1    1.5000E+02  1.3393E+00   1.4866E+02  0.000E+00  0.000E+00  0.000E+00  1.03987E+03  2.288E+00  5.529E+01  5.593E-01  7.982E-01
   1   13    8     7     2    1.4866E+02  1.8494E+00   1.4681E+02  0.000E+00  0.000E+00  0.000E+00  1.03478E+03  2.279E+00  5.526E+01  6.148E-01  1.003E+00
   1   13    7     7     3    1.4681E+02  1.4939E+00   1.4532E+02  0.000E+00  0.000E+00  0.000E+00  1.02969E+03  2.270E+00  5.522E+01  5.584E-01  8.917E-01
   1   13    6     8     1    2.2131E+02  1.1840E+00   2.2013E+02  0.000E+00  0.000E+00  0.000E+00  1.02513E+03  3.256E+00  4.721E+01  4.811E-01  8.203E-01
   1   13    5     8     2    2.2013E+02  3.5154E-01   2.1978E+02  0.000E+00  0.000E+00  0.000E+00  1.01888E+03  3.252E+00  4.715E+01  4.805E-01  2.439E-01
   1   13    4     8     3    2.1978E+02 -1.2625E+00   2.2104E+02  0.000E+00  0.000E+00  0.000E+00  1.01263E+03  3.254E+00  4.719E+01  4.808E+00 -8.753E-02
   1   13    3     8     4    2.2104E+02 -2.5980E+00   2.2364E+02  0.000E+00  0.000E+00  0.000E+00  1.00639E+03  3.265E+00  4.734E+01  4.824E+00 -1.795E-01
   1   13    2     8     5    2.2364E+02 -1.4454E+00   2.2508E+02  0.000E+00  0.000E+00  0.000E+00  1.00015E+03  3.276E+00  4.750E+01  4.840E+00 -9.953E-02
   1   13    1     8     6    2.2508E+02 -1.3298E+00   2.2641E+02  0.000E+00  0.000E+00  0.000E+00  9.95159E+02  3.283E+00  4.761E+01  2.911E+00 -1.523E-01
   1    8    6     9     1    0.0000E+00  0.0000E+00   0.0000E+00  0.000E+00  0.000E+00  0.000E+00  1.07875E+03  0.000E+00  4.000E+00  0.000E+00  1.000E+00
   1    8    5     9     2    0.0000E+00  0.0000E+00   0.0000E+00  0.000E+00  0.000E+00  0.000E+00  1.07825E+03  0.000E+00  4.000E+00  0.000E+00  1.000E+00





UNSATURATED ZONE PACKAGE VOLUMETRIC BUDGET FOR  TIME STEP    30 STRESS PERIOD   15
  ------------------------------------------------------------------------------



     CUMULATIVE VOLUMES      L**3       RATES FOR THIS TIME STEP      L**3/T
     ------------------                 ------------------------

           IN:                                      IN:
           ---                                      ---
        INFILTRATION =  1604032254.5740          INFILTRATION =           0.8475

          OUT:                                     OUT:
          ----                                     ----
              UZF ET =   436220187.4340                UZF ET =           0.7500
        UZF RECHARGE =   887717398.7402          UZF RECHARGE =       0.0000E+00

            IN - OUT =   280094668.3998              IN - OUT =       9.7500E-02

          STORAGE:                                 STORAGE:
          --------                                 --------
      STORAGE CHANGE =   280096773.7023        STORAGE CHANGE =       9.7500E-02

 PERCENT DISCREPANCY IS DIFFERENCE BETWEEN IN-OUT MINUS CHANGE IN STORAGE
 DIVIDED BY THE AVERAGE OF IN AND OUT TIMES 100

 PERCENT DISCREPANCY =          -0.00     PERCENT DISCREPANCY =           0.00






1
  VOLUMETRIC BUDGET FOR AGRICULTURAL FIELDS AT  END OF TIME STEP   30, STRESS PERIOD  15
  ------------------------------------------------------------------------------

     CUMULATIVE VOLUMES      L**3       RATES FOR THIS TIME STEP      L**3/T
     ------------------                 ------------------------

           IN:                                      IN:
           ---                                      ---
           AG WELLS      =  1024023808.0000             AG WELLS      =           0.0000
      DIVERSION SEGMENTS =   548718528.0000        DIVERSION SEGMENTS =           0.0000
           GW IRRIGATION =           0.0000             GW IRRIGATION =           0.0000
           SW IRRIGATION =           0.0000             SW IRRIGATION =           0.0000
        SYSTEM LOSSES GW =           0.0000          SYSTEM LOSSES GW =           0.0000
        SYSTEM LOSSES SW =           0.0000          SYSTEM LOSSES SW =           0.0000

                TOTAL IN =  1572742400.0000                  TOTAL IN =           0.0000

          OUT:                                     OUT:
          ----                                     ----
           AG WELLS      =           0.0000             AG WELLS      =           0.0000
      DIVERSION SEGMENTS =           0.0000        DIVERSION SEGMENTS =           0.0000
           GW IRRIGATION =  1024023808.0000             GW IRRIGATION =           0.0000
           SW IRRIGATION =   548729152.0000             SW IRRIGATION =           0.0000
        SYSTEM LOSSES GW =           0.0000          SYSTEM LOSSES GW =           0.0000
        SYSTEM LOSSES SW =           0.0000          SYSTEM LOSSES SW =           0.0000

               TOTAL OUT =  1572752896.0000                 TOTAL OUT =           0.0000

                IN - OUT =      -10496.0000                  IN - OUT =           0.0000

     PERCENT DISCREPANCY =          -0.00         PERCENT DISCREPANCY =           0.00



1
  VOLUMETRIC BUDGET FOR ENTIRE MODEL AT END OF TIME STEP   30, STRESS PERIOD  15
  ------------------------------------------------------------------------------

     CUMULATIVE VOLUMES      L**3       RATES FOR THIS TIME STEP      L**3/T
     ------------------                 ------------------------

           IN:                                      IN:
           ---                                      ---
             STORAGE     =  1133180032.0000               STORAGE     =           2.1996
       CONSTANT HEAD     =           0.0000         CONSTANT HEAD     =           0.0000
     HEAD DEP BOUNDS     =    10548040.0000       HEAD DEP BOUNDS     =           0.2860
      STREAM LEAKAGE     =   438315936.0000        STREAM LEAKAGE     =          13.7254
        UZF RECHARGE     =   887717248.0000          UZF RECHARGE     =           0.0000
               GW ET     =           0.0000                 GW ET     =           0.0000
     SURFACE LEAKAGE     =           0.0000       SURFACE LEAKAGE     =           0.0000
           AG WELLS      =           0.0000             AG WELLS      =           0.0000

                TOTAL IN =  2469761280.0000                  TOTAL IN =          16.2111

          OUT:                                     OUT:
          ----                                     ----
             STORAGE     =  1036862592.0000               STORAGE     =           9.2860
       CONSTANT HEAD     =           0.0000         CONSTANT HEAD     =           0.0000
     HEAD DEP BOUNDS     =    10688087.0000       HEAD DEP BOUNDS     =           0.2894
      STREAM LEAKAGE     =   398127392.0000        STREAM LEAKAGE     =           6.6356
        UZF RECHARGE     =           0.0000          UZF RECHARGE     =           0.0000
               GW ET     =       56916.5898                 GW ET     =           0.0000
     SURFACE LEAKAGE     =           0.0000       SURFACE LEAKAGE     =           0.0000
           AG WELLS      =  1024023808.0000             AG WELLS      =           0.0000

               TOTAL OUT =  2469758976.0000                 TOTAL OUT =          16.2110

                IN - OUT =        2304.0000                  IN - OUT =       3.0518E-05

     PERCENT DISCREPANCY =           0.00         PERCENT DISCREPANCY =           0.00






         TIME SUMMARY AT END OF TIME STEP   30 IN STRESS PERIOD   15
                    SECONDS     MINUTES      HOURS       DAYS        YEARS
                    -----------------------------------------------------------
   TIME STEP LENGTH  87667.      1461.1      24.352      1.0147     2.77799E-03
 STRESS PERIOD TIME 2.63000E+06  43833.      730.56      30.440     8.33397E-02
         TOTAL TIME 3.69063E+07 6.15106E+05  10252.      427.16      1.1695    
1
1
                            STRESS PERIOD NO.   16, LENGTH =   2630000.    
                            -----------------------------------------------

                              NUMBER OF TIME STEPS =    30

                               MULTIPLIER FOR DELT =     1.000

                            INITIAL TIME STEP SIZE =   87666.66    

 REUSING NON-PARAMETER GHB CELLS FROM LAST STRESS PERIOD

      2 GHB CELLS

 REUSING STREAM SEGMENT DATA FROM LAST STRESS PERIOD



            AREAL INFILTRATION RATE
 READING ON UNIT   19 WITH FORMAT: (FREE)              

            1           2           3           4           5           6           7           8           9          10
 ........................................................................................................................
   1   1.0000E-10  2.0000E-10   0.000       0.000       0.000       0.000       0.000       0.000       0.000       0.000    
   2   2.0000E-10  1.0000E-10  2.0000E-10   0.000       0.000      8.0000E-10  8.0000E-10  5.0000E-10   0.000       0.000    
   3    0.000      5.0000E-10  1.0000E-10  1.0000E-10  8.0000E-10  8.0000E-10  5.0000E-10  5.0000E-10   0.000       0.000    
   4   8.0000E-10  5.0000E-10  1.0000E-10  1.0000E-10  1.0000E-10  1.0000E-10  1.0000E-10  1.0000E-10  2.0000E-10   0.000    
   5   8.0000E-10  5.0000E-10  1.0000E-10  1.0000E-10  1.0000E-10  1.0000E-10  1.0000E-10  1.0000E-10  1.0000E-10  1.0000E-10
   6   8.0000E-10  5.0000E-10  5.0000E-10  2.0000E-10  2.0000E-10  1.0000E-10  1.0000E-10  1.0000E-10  1.0000E-10  5.0000E-10
   7   8.0000E-10  5.0000E-10  5.0000E-10  2.0000E-10  2.0000E-10  1.0000E-10  1.0000E-10  2.0000E-10  2.0000E-10   0.000    
   8    0.000      5.0000E-10  5.0000E-10  2.0000E-10  2.0000E-10  1.0000E-10  1.0000E-10  2.0000E-10  5.0000E-10   0.000    
   9    0.000      5.0000E-10  5.0000E-10  2.0000E-10  2.0000E-10  1.0000E-10  1.0000E-10  2.0000E-10  5.0000E-10   0.000    
  10    0.000      5.0000E-10  5.0000E-10  2.0000E-10  2.0000E-10  1.0000E-10  1.0000E-10  2.0000E-10  5.0000E-10  8.0000E-10
  11    0.000      1.0000E-10  1.0000E-10  1.0000E-10  1.0000E-10  1.0000E-10  1.0000E-10  2.0000E-10  5.0000E-10   0.000    
  12   1.0000E-10  1.0000E-10  1.0000E-10  1.0000E-10  1.0000E-10  1.0000E-10  1.0000E-10  1.0000E-10  2.0000E-10   0.000    
  13   1.0000E-10  1.0000E-10  2.0000E-10  2.0000E-10  2.0000E-10  2.0000E-10  2.0000E-10  1.0000E-10  1.0000E-10   0.000    
  14    0.000      2.0000E-10  5.0000E-10  5.0000E-10  5.0000E-10  5.0000E-10  5.0000E-10  2.0000E-10  1.0000E-10   0.000    
  15    0.000       0.000      8.0000E-10  8.0000E-10  8.0000E-10  8.0000E-10   0.000       0.000       0.000       0.000    

                  ET RATE =  5.000000E-10

 USING ET EXTINCTION DEPTH FROM PREVIOUS STRESS PERIOD. CURRENT PERIOD IS:      16

 USING EXTINCTION WATER CONTENT FROM PREVIOUS STRESS PERIOD. CURRENT PERIOD IS:      16

 USING AIR ENTRY PRESSURE FROM PREVIOUS STRESS PERIOD. CURRENT PERIOD IS:      16

 USING ROOT PRESSURE HEAD FROM PREVIOUS STRESS PERIOD. CURRENT PERIOD IS:      16

 USING ROOT ACTIVITY FROM PREVIOUS STRESS PERIOD. CURRENT PERIOD IS:      16

 PROCESSING AG STRESS PERIOD DATA

 READING AG STRESS PERIOD DATA

 READING IRRIGATION SEGMENT

 READING IRRIGATION WELL

 READING SUPPLEMENTAL WELL

 END PROCESSING AG STRESS PERIOD DATA OPTIONS
 
 SOLVING FOR HEAD 
                                                   Max.-Head-Change                         Max.-Flux-Residual
  Residual-Control   Outer-Iter.   Inner-Iter.     Column Row Layer    Maximum-Head-Change  Column Row Layer    Maximum-Flux-Residual          L2-NORM 
          0                 1           2             4   13     1       0.2017859860E-01       4   13    1         0.1163070963E+01      0.2309586310E+01
          0                 2           2             4   13     1      -0.1941023546E-02       4   13    1        -0.1150323953E+00      0.2251703720E+00
          0                 3           2             4   13     1       0.1301214314E-03       4   13    1         0.7928642165E-02      0.1522304084E-01
          0                 4           1             4   13     1      -0.5034128284E-05       4   13    1        -0.3153998478E-03      0.5878433655E-03

    ------------------------------------------------
       NWT REQUIRED            4 OUTER ITERATIONS 
       AND A TOTAL OF          7 INNER ITERATIONS.
    ------------------------------------------------

 NO OUTPUT CONTROL FOR STRESS PERIOD   16   TIME STEP    1
 
 SOLVING FOR HEAD 
                                                   Max.-Head-Change                         Max.-Flux-Residual
  Residual-Control   Outer-Iter.   Inner-Iter.     Column Row Layer    Maximum-Head-Change  Column Row Layer    Maximum-Flux-Residual          L2-NORM 
          0                 1           2             4   13     1       0.1821074026E-01       4   13    1         0.1048943453E+01      0.2159061250E+01
          0                 2           2             4   13     1      -0.1751653898E-02       4   13    1        -0.1037393579E+00      0.2107017948E+00
          0                 3           1             4   13     1       0.1174350178E-03       4   13    1         0.7150724057E-02      0.1426433615E-01
          0                 4           1             4   13     1      -0.4567117318E-05       4   13    1        -0.2859529113E-03      0.5540873335E-03

    ------------------------------------------------
       NWT REQUIRED            4 OUTER ITERATIONS 
       AND A TOTAL OF          6 INNER ITERATIONS.
    ------------------------------------------------

 NO OUTPUT CONTROL FOR STRESS PERIOD   16   TIME STEP    2
 
 SOLVING FOR HEAD 
                                                   Max.-Head-Change                         Max.-Flux-Residual
  Residual-Control   Outer-Iter.   Inner-Iter.     Column Row Layer    Maximum-Head-Change  Column Row Layer    Maximum-Flux-Residual          L2-NORM 
          0                 1           2             2   13     1       0.1676373357E-01       2   13    1         0.9488454557E+00      0.2024127697E+01
          0                 2           2             4   13     1      -0.1581835014E-02       4   13    1        -0.9361556981E-01      0.1977419658E+00
          0                 3           1             4   13     1       0.1060330795E-03       4   13    1         0.6451779157E-02      0.1340828359E-01
          0                 4           1             4   13     1      -0.4115532989E-05       4   13    1        -0.2575346434E-03      0.5188550604E-03

    ------------------------------------------------
       NWT REQUIRED            4 OUTER ITERATIONS 
       AND A TOTAL OF          6 INNER ITERATIONS.
    ------------------------------------------------

 NO OUTPUT CONTROL FOR STRESS PERIOD   16   TIME STEP    3
 
 SOLVING FOR HEAD 
                                                   Max.-Head-Change                         Max.-Flux-Residual
  Residual-Control   Outer-Iter.   Inner-Iter.     Column Row Layer    Maximum-Head-Change  Column Row Layer    Maximum-Flux-Residual          L2-NORM 
          0                 1           2             2   13     1       0.1543974708E-01       2   13    1         0.8738142549E+00      0.1903256567E+01
          0                 2           2             2   13     1      -0.1430774413E-02       4   13    1        -0.8453964442E-01      0.1861399402E+00
          0                 3           1             4   13     1       0.9580310655E-04       4   13    1         0.5824912128E-02      0.1264044971E-01

    ------------------------------------------------
       NWT REQUIRED            3 OUTER ITERATIONS 
       AND A TOTAL OF          5 INNER ITERATIONS.
    ------------------------------------------------

 NO OUTPUT CONTROL FOR STRESS PERIOD   16   TIME STEP    4
 
 SOLVING FOR HEAD 
                                                   Max.-Head-Change                         Max.-Flux-Residual
  Residual-Control   Outer-Iter.   Inner-Iter.     Column Row Layer    Maximum-Head-Change  Column Row Layer    Maximum-Flux-Residual          L2-NORM 
          0                 1           2             2   13     1       0.1422089360E-01       2   13    1         0.8047429237E+00      0.1795004576E+01
          0                 2           2             2   13     1      -0.1318543929E-02       2   13    1        -0.7669873829E-01      0.1757559729E+00
          0                 3           1             4   13     1       0.8664227813E-04       4   13    1         0.5263756773E-02      0.1195519845E-01

    ------------------------------------------------
       NWT REQUIRED            3 OUTER ITERATIONS 
       AND A TOTAL OF          5 INNER ITERATIONS.
    ------------------------------------------------

 NO OUTPUT CONTROL FOR STRESS PERIOD   16   TIME STEP    5
 
 SOLVING FOR HEAD 
                                                   Max.-Head-Change                         Max.-Flux-Residual
  Residual-Control   Outer-Iter.   Inner-Iter.     Column Row Layer    Maximum-Head-Change  Column Row Layer    Maximum-Flux-Residual          L2-NORM 
          0                 1           2             2   13     1       0.1309915384E-01       2   13    1         0.7411770208E+00      0.1698133464E+01
          0                 2           2             2   13     1      -0.1215179723E-02       2   13    1        -0.7067609746E-01      0.1665315518E+00
          0                 3           1             4   13     1       0.7842003838E-04       4   13    1         0.4760181712E-02      0.1134704900E-01

    ------------------------------------------------
       NWT REQUIRED            3 OUTER ITERATIONS 
       AND A TOTAL OF          5 INNER ITERATIONS.
    ------------------------------------------------

 NO OUTPUT CONTROL FOR STRESS PERIOD   16   TIME STEP    6
 
 SOLVING FOR HEAD 
                                                   Max.-Head-Change                         Max.-Flux-Residual
  Residual-Control   Outer-Iter.   Inner-Iter.     Column Row Layer    Maximum-Head-Change  Column Row Layer    Maximum-Flux-Residual          L2-NORM 
          0                 1           2             2   13     1       0.1206686273E-01       2   13    1         0.6826844562E+00      0.1611421317E+01
          0                 2           2             2   13     1      -0.1119920598E-02       2   13    1        -0.6512841659E-01      0.1581922575E+00
          0                 3           1             2   13     1       0.7129553767E-04       4   13    1         0.4307493116E-02      0.1079743643E-01

    ------------------------------------------------
       NWT REQUIRED            3 OUTER ITERATIONS 
       AND A TOTAL OF          5 INNER ITERATIONS.
    ------------------------------------------------

 NO OUTPUT CONTROL FOR STRESS PERIOD   16   TIME STEP    7
 
 SOLVING FOR HEAD 
                                                   Max.-Head-Change                         Max.-Flux-Residual
  Residual-Control   Outer-Iter.   Inner-Iter.     Column Row Layer    Maximum-Head-Change  Column Row Layer    Maximum-Flux-Residual          L2-NORM 
          0                 1           2             2   13     1       0.1111696429E-01       2   13    1         0.6288616622E+00      0.1533839748E+01
          0                 2           2             2   13     1      -0.1032197615E-02       2   13    1        -0.6001869371E-01      0.1507302147E+00
          0                 3           1             2   13     1       0.6573670308E-04       2   13    1         0.3928370091E-02      0.1030493892E-01

    ------------------------------------------------
       NWT REQUIRED            3 OUTER ITERATIONS 
       AND A TOTAL OF          5 INNER ITERATIONS.
    ------------------------------------------------

 NO OUTPUT CONTROL FOR STRESS PERIOD   16   TIME STEP    8
 
 SOLVING FOR HEAD 
                                                   Max.-Head-Change                         Max.-Flux-Residual
  Residual-Control   Outer-Iter.   Inner-Iter.     Column Row Layer    Maximum-Head-Change  Column Row Layer    Maximum-Flux-Residual          L2-NORM 
          0                 1           2             2   13     1       0.1024283327E-01       2   13    1         0.5793342350E+00      0.1464397724E+01
          0                 2           2             2   13     1      -0.9514025909E-03       2   13    1        -0.5531274075E-01      0.1441177713E+00
          0                 3           1             2   13     1       0.6063496705E-04       2   13    1         0.3622952764E-02      0.9869320720E-02

    ------------------------------------------------
       NWT REQUIRED            3 OUTER ITERATIONS 
       AND A TOTAL OF          5 INNER ITERATIONS.
    ------------------------------------------------

 NO OUTPUT CONTROL FOR STRESS PERIOD   16   TIME STEP    9
 
 SOLVING FOR HEAD 
                                                   Max.-Head-Change                         Max.-Flux-Residual
  Residual-Control   Outer-Iter.   Inner-Iter.     Column Row Layer    Maximum-Head-Change  Column Row Layer    Maximum-Flux-Residual          L2-NORM 
          0                 1           2             2   13     1       0.9438502370E-02       2   13    1         0.5337640229E+00      0.1402227880E+01
          0                 2           2             2   13     1      -0.8770113514E-03       2   13    1        -0.5098007561E-01      0.1381309998E+00
          0                 3           1             2   13     1       0.5594923980E-04       2   13    1         0.3342473255E-02      0.9475868040E-02

    ------------------------------------------------
       NWT REQUIRED            3 OUTER ITERATIONS 
       AND A TOTAL OF          5 INNER ITERATIONS.
    ------------------------------------------------

 NO OUTPUT CONTROL FOR STRESS PERIOD   16   TIME STEP   10
 
 SOLVING FOR HEAD 
                                                   Max.-Head-Change                         Max.-Flux-Residual
  Residual-Control   Outer-Iter.   Inner-Iter.     Column Row Layer    Maximum-Head-Change  Column Row Layer    Maximum-Flux-Residual          L2-NORM 
          0                 1           2             2   13     1       0.8698433147E-02       2   13    1         0.4918370124E+00      0.1346559363E+01
          0                 2           2             2   13     1      -0.8084846768E-03       2   13    1        -0.4698917311E-01      0.1328026537E+00
          0                 3           1             2   13     1       0.5156410192E-04       2   13    1         0.3079944075E-02      0.9124598602E-02

    ------------------------------------------------
       NWT REQUIRED            3 OUTER ITERATIONS 
       AND A TOTAL OF          5 INNER ITERATIONS.
    ------------------------------------------------

 NO OUTPUT CONTROL FOR STRESS PERIOD   16   TIME STEP   11
 
 SOLVING FOR HEAD 
                                                   Max.-Head-Change                         Max.-Flux-Residual
  Residual-Control   Outer-Iter.   Inner-Iter.     Column Row Layer    Maximum-Head-Change  Column Row Layer    Maximum-Flux-Residual          L2-NORM 
          0                 1           2             2   13     1       0.8017416686E-02       2   13    1         0.4532578526E+00      0.1296699062E+01
          0                 2           2             2   13     1      -0.7454103207E-03       2   13    1        -0.4331606939E-01      0.1280310068E+00
          0                 3           1             2   13     1       0.4757492896E-04       2   13    1         0.2841176844E-02      0.8811119498E-02

    ------------------------------------------------
       NWT REQUIRED            3 OUTER ITERATIONS 
       AND A TOTAL OF          5 INNER ITERATIONS.
    ------------------------------------------------

 NO OUTPUT CONTROL FOR STRESS PERIOD   16   TIME STEP   12
 
 SOLVING FOR HEAD 
                                                   Max.-Head-Change                         Max.-Flux-Residual
  Residual-Control   Outer-Iter.   Inner-Iter.     Column Row Layer    Maximum-Head-Change  Column Row Layer    Maximum-Flux-Residual          L2-NORM 
          0                 1           2             2   13     1       0.7390797486E-02       2   13    1         0.4177626496E+00      0.1251975362E+01
          0                 2           2             2   13     1      -0.6873276598E-03       2   13    1        -0.3993390306E-01      0.1237496259E+00
          0                 3           1             2   13     1       0.4394639612E-04       2   13    1         0.2624051221E-02      0.8530243932E-02

    ------------------------------------------------
       NWT REQUIRED            3 OUTER ITERATIONS 
       AND A TOTAL OF          5 INNER ITERATIONS.
    ------------------------------------------------

 NO OUTPUT CONTROL FOR STRESS PERIOD   16   TIME STEP   13
 
 SOLVING FOR HEAD 
                                                   Max.-Head-Change                         Max.-Flux-Residual
  Residual-Control   Outer-Iter.   Inner-Iter.     Column Row Layer    Maximum-Head-Change  Column Row Layer    Maximum-Flux-Residual          L2-NORM 
          0                 1           2             2   13     1       0.6814123969E-02       2   13    1         0.3850988940E+00      0.1211801706E+01
          0                 2           2             2   13     1      -0.6337882339E-03       2   13    1        -0.3681648471E-01      0.1199011499E+00
          0                 3           1             2   13     1       0.4047150921E-04       2   13    1         0.2416031611E-02      0.8275674952E-02

    ------------------------------------------------
       NWT REQUIRED            3 OUTER ITERATIONS 
       AND A TOTAL OF          5 INNER ITERATIONS.
    ------------------------------------------------

 NO OUTPUT CONTROL FOR STRESS PERIOD   16   TIME STEP   14
 
 SOLVING FOR HEAD 
                                                   Max.-Head-Change                         Max.-Flux-Residual
  Residual-Control   Outer-Iter.   Inner-Iter.     Column Row Layer    Maximum-Head-Change  Column Row Layer    Maximum-Flux-Residual          L2-NORM 
          0                 1           2             1   13     1       0.6318380723E-02       2   13    1         0.3550504709E+00      0.1175661759E+01
          0                 2           2             1   13     1      -0.5932426756E-03       2   13    1        -0.3395017744E-01      0.1164377717E+00
          0                 3           1             3    3     1       0.3978636458E-04       2   13    1         0.2228874181E-02      0.8046422457E-02

    ------------------------------------------------
       NWT REQUIRED            3 OUTER ITERATIONS 
       AND A TOTAL OF          5 INNER ITERATIONS.
    ------------------------------------------------

 NO OUTPUT CONTROL FOR STRESS PERIOD   16   TIME STEP   15
 
 SOLVING FOR HEAD 
                                                   Max.-Head-Change                         Max.-Flux-Residual
  Residual-Control   Outer-Iter.   Inner-Iter.     Column Row Layer    Maximum-Head-Change  Column Row Layer    Maximum-Flux-Residual          L2-NORM 
          0                 1           2             1   13     1       0.6018659470E-02       1   13    1         0.3287955736E+00      0.1143072678E+01
          0                 2           2             3    3     1      -0.5794254383E-03       1   13    1        -0.3177395203E-01      0.1133110578E+00
          0                 3           1             3    3     1       0.3945671942E-04       3    3    1         0.2183952832E-02      0.7839767586E-02

    ------------------------------------------------
       NWT REQUIRED            3 OUTER ITERATIONS 
       AND A TOTAL OF          5 INNER ITERATIONS.
    ------------------------------------------------

 NO OUTPUT CONTROL FOR STRESS PERIOD   16   TIME STEP   16
 
 SOLVING FOR HEAD 
                                                   Max.-Head-Change                         Max.-Flux-Residual
  Residual-Control   Outer-Iter.   Inner-Iter.     Column Row Layer    Maximum-Head-Change  Column Row Layer    Maximum-Flux-Residual          L2-NORM 
          0                 1           2             3    3     1       0.5907566646E-02       1   13    1         0.3131672055E+00      0.1113627987E+01
          0                 2           2             3    3     1      -0.5746456292E-03       3    3    1        -0.3094003681E-01      0.1104845367E+00
          0                 3           1             3    3     1       0.3913123261E-04       3    3    1         0.2165803212E-02      0.7652187396E-02

    ------------------------------------------------
       NWT REQUIRED            3 OUTER ITERATIONS 
       AND A TOTAL OF          5 INNER ITERATIONS.
    ------------------------------------------------

 NO OUTPUT CONTROL FOR STRESS PERIOD   16   TIME STEP   17
 
 SOLVING FOR HEAD 
                                                   Max.-Head-Change                         Max.-Flux-Residual
  Residual-Control   Outer-Iter.   Inner-Iter.     Column Row Layer    Maximum-Head-Change  Column Row Layer    Maximum-Flux-Residual          L2-NORM 
          0                 1           2             3    3     1       0.5859284739E-02       3    3    1         0.3068522806E+00      0.1086946554E+01
          0                 2           2             3    3     1      -0.5699491166E-03       3    3    1        -0.3068526069E-01      0.1079209911E+00
          0                 3           1             3    3     1       0.3881141744E-04       3    3    1         0.2147968884E-02      0.7483536375E-02

    ------------------------------------------------
       NWT REQUIRED            3 OUTER ITERATIONS 
       AND A TOTAL OF          5 INNER ITERATIONS.
    ------------------------------------------------

 NO OUTPUT CONTROL FOR STRESS PERIOD   16   TIME STEP   18
 
 SOLVING FOR HEAD 
                                                   Max.-Head-Change                         Max.-Flux-Residual
  Residual-Control   Outer-Iter.   Inner-Iter.     Column Row Layer    Maximum-Head-Change  Column Row Layer    Maximum-Flux-Residual          L2-NORM 
          0                 1           2             3    3     1       0.5811842929E-02       3    3    1         0.3043489184E+00      0.1062708186E+01
          0                 2           2             3    3     1      -0.5653343215E-03       3    3    1        -0.3043492445E-01      0.1055888876E+00
          0                 3           1             3    3     1       0.3849716646E-04       3    3    1         0.2130445320E-02      0.7328596816E-02

    ------------------------------------------------
       NWT REQUIRED            3 OUTER ITERATIONS 
       AND A TOTAL OF          5 INNER ITERATIONS.
    ------------------------------------------------

 NO OUTPUT CONTROL FOR STRESS PERIOD   16   TIME STEP   19
 
 SOLVING FOR HEAD 
                                                   Max.-Head-Change                         Max.-Flux-Residual
  Residual-Control   Outer-Iter.   Inner-Iter.     Column Row Layer    Maximum-Head-Change  Column Row Layer    Maximum-Flux-Residual          L2-NORM 
          0                 1           2             3    3     1       0.5764993131E-02       3    3    1         0.3018766139E+00      0.1040624606E+01
          0                 2           2             3    3     1      -0.5607771130E-03       3    3    1        -0.3018769396E-01      0.1034614260E+00
          0                 3           1             3    3     1       0.3818683786E-04       3    3    1         0.2113139184E-02      0.7186907454E-02

    ------------------------------------------------
       NWT REQUIRED            3 OUTER ITERATIONS 
       AND A TOTAL OF          5 INNER ITERATIONS.
    ------------------------------------------------

 NO OUTPUT CONTROL FOR STRESS PERIOD   16   TIME STEP   20
 
 SOLVING FOR HEAD 
                                                   Max.-Head-Change                         Max.-Flux-Residual
  Residual-Control   Outer-Iter.   Inner-Iter.     Column Row Layer    Maximum-Head-Change  Column Row Layer    Maximum-Flux-Residual          L2-NORM 
          0                 1           2             3    3     1       0.5718965217E-02       3    3    1         0.2994475050E+00      0.1020429803E+01
          0                 2           2             3    3     1      -0.5562998508E-03       3    3    1        -0.2994478299E-01      0.1015129617E+00
          0                 3           1             3    3     1       0.3788195275E-04       3    3    1         0.2096135408E-02      0.7057348484E-02

    ------------------------------------------------
       NWT REQUIRED            3 OUTER ITERATIONS 
       AND A TOTAL OF          5 INNER ITERATIONS.
    ------------------------------------------------

 NO OUTPUT CONTROL FOR STRESS PERIOD   16   TIME STEP   21
 
 SOLVING FOR HEAD 
                                                   Max.-Head-Change                         Max.-Flux-Residual
  Residual-Control   Outer-Iter.   Inner-Iter.     Column Row Layer    Maximum-Head-Change  Column Row Layer    Maximum-Flux-Residual          L2-NORM 
          0                 1           2             3    3     1       0.5673740589E-02       3    3    1         0.2970610100E+00      0.1001906299E+01
          0                 2           2             3    3     1      -0.5519007263E-03       3    3    1        -0.2970613341E-01      0.9972274989E-01
          0                 3           1             3    3     1       0.3758238900E-04       3    3    1         0.2079429931E-02      0.6937443083E-02

    ------------------------------------------------
       NWT REQUIRED            3 OUTER ITERATIONS 
       AND A TOTAL OF          5 INNER ITERATIONS.
    ------------------------------------------------

 NO OUTPUT CONTROL FOR STRESS PERIOD   16   TIME STEP   22
 
 SOLVING FOR HEAD 
                                                   Max.-Head-Change                         Max.-Flux-Residual
  Residual-Control   Outer-Iter.   Inner-Iter.     Column Row Layer    Maximum-Head-Change  Column Row Layer    Maximum-Flux-Residual          L2-NORM 
          0                 1           2             3    3     1       0.5629070512E-02       3    3    1         0.2947036634E+00      0.9848499734E+00
          0                 2           2             3    3     1      -0.5475555447E-03       3    3    1        -0.2947039867E-01      0.9807134810E-01
          0                 3           1             3    3     1       0.3728649794E-04       3    3    1         0.2062928490E-02      0.6827059169E-02

    ------------------------------------------------
       NWT REQUIRED            3 OUTER ITERATIONS 
       AND A TOTAL OF          5 INNER ITERATIONS.
    ------------------------------------------------

 NO OUTPUT CONTROL FOR STRESS PERIOD   16   TIME STEP   23
 
 SOLVING FOR HEAD 
                                                   Max.-Head-Change                         Max.-Flux-Residual
  Residual-Control   Outer-Iter.   Inner-Iter.     Column Row Layer    Maximum-Head-Change  Column Row Layer    Maximum-Flux-Residual          L2-NORM 
          0                 1           2             3    3     1       0.5585181645E-02       3    3    1         0.2923875706E+00      0.9691003909E+00
          0                 2           2             3    3     1      -0.5432863535E-03       3    3    1        -0.2923878930E-01      0.9654497177E-01
          0                 3           1             3    3     1       0.3699578175E-04       3    3    1         0.2046715821E-02      0.6724479636E-02

    ------------------------------------------------
       NWT REQUIRED            3 OUTER ITERATIONS 
       AND A TOTAL OF          5 INNER ITERATIONS.
    ------------------------------------------------

 NO OUTPUT CONTROL FOR STRESS PERIOD   16   TIME STEP   24
 
 SOLVING FOR HEAD 
                                                   Max.-Head-Change                         Max.-Flux-Residual
  Residual-Control   Outer-Iter.   Inner-Iter.     Column Row Layer    Maximum-Head-Change  Column Row Layer    Maximum-Flux-Residual          L2-NORM 
          0                 1           2             3    3     1       0.5542059234E-02       3    3    1         0.2901119828E+00      0.9544987991E+00
          0                 2           2             3    3     1      -0.5390917167E-03       3    3    1        -0.2901123039E-01      0.9512744387E-01
          0                 3           1             3    3     1       0.3671014291E-04       3    3    1         0.2030786698E-02      0.6629449659E-02

    ------------------------------------------------
       NWT REQUIRED            3 OUTER ITERATIONS 
       AND A TOTAL OF          5 INNER ITERATIONS.
    ------------------------------------------------

 NO OUTPUT CONTROL FOR STRESS PERIOD   16   TIME STEP   25
 
 SOLVING FOR HEAD 
                                                   Max.-Head-Change                         Max.-Flux-Residual
  Residual-Control   Outer-Iter.   Inner-Iter.     Column Row Layer    Maximum-Head-Change  Column Row Layer    Maximum-Flux-Residual          L2-NORM 
          0                 1           2             3    3     1       0.5499456634E-02       3    3    1         0.2878636332E+00      0.9409232832E+00
          0                 2           2             3    3     1      -0.5349476431E-03       3    3    1        -0.2878639529E-01      0.9380608781E-01
          0                 3           1             3    3     1       0.3642794648E-04       3    3    1         0.2015048225E-02      0.6540247531E-02

    ------------------------------------------------
       NWT REQUIRED            3 OUTER ITERATIONS 
       AND A TOTAL OF          5 INNER ITERATIONS.
    ------------------------------------------------

 NO OUTPUT CONTROL FOR STRESS PERIOD   16   TIME STEP   26
 
 SOLVING FOR HEAD 
                                                   Max.-Head-Change                         Max.-Flux-Residual
  Residual-Control   Outer-Iter.   Inner-Iter.     Column Row Layer    Maximum-Head-Change  Column Row Layer    Maximum-Flux-Residual          L2-NORM 
          0                 1           2             3    3     1       0.5457601257E-02       3    3    1         0.2856547368E+00      0.9282517690E+00
          0                 2           2             3    3     1      -0.5308762543E-03       3    3    1        -0.2856550553E-01      0.9257173816E-01
          0                 3           1             3    3     1       0.3615070007E-04       3    3    1         0.1999585936E-02      0.6456727971E-02

    ------------------------------------------------
       NWT REQUIRED            3 OUTER ITERATIONS 
       AND A TOTAL OF          5 INNER ITERATIONS.
    ------------------------------------------------

 NO OUTPUT CONTROL FOR STRESS PERIOD   16   TIME STEP   27
 
 SOLVING FOR HEAD 
                                                   Max.-Head-Change                         Max.-Flux-Residual
  Residual-Control   Outer-Iter.   Inner-Iter.     Column Row Layer    Maximum-Head-Change  Column Row Layer    Maximum-Flux-Residual          L2-NORM 
          0                 1           2             3    3     1       0.5416475599E-02       3    3    1         0.2834845832E+00      0.9163772692E+00
          0                 2           2             3    3     1      -0.5268758470E-03       3    3    1        -0.2834849001E-01      0.9141267133E-01
          0                 3           1             3    3     1       0.3587828724E-04       3    3    1         0.1984394857E-02      0.6378250959E-02

    ------------------------------------------------
       NWT REQUIRED            3 OUTER ITERATIONS 
       AND A TOTAL OF          5 INNER ITERATIONS.
    ------------------------------------------------

 NO OUTPUT CONTROL FOR STRESS PERIOD   16   TIME STEP   28
 
 SOLVING FOR HEAD 
                                                   Max.-Head-Change                         Max.-Flux-Residual
  Residual-Control   Outer-Iter.   Inner-Iter.     Column Row Layer    Maximum-Head-Change  Column Row Layer    Maximum-Flux-Residual          L2-NORM 
          0                 1           2             3    3     1       0.5375830370E-02       3    3    1         0.2813397625E+00      0.9052228081E+00
          0                 2           2             3    3     1      -0.5229221721E-03       3    3    1        -0.2813400777E-01      0.9032215057E-01
          0                 3           1             3    3     1       0.3560905649E-04       3    3    1         0.1969381085E-02      0.6304141797E-02

    ------------------------------------------------
       NWT REQUIRED            3 OUTER ITERATIONS 
       AND A TOTAL OF          5 INNER ITERATIONS.
    ------------------------------------------------

 NO OUTPUT CONTROL FOR STRESS PERIOD   16   TIME STEP   29
 
 SOLVING FOR HEAD 
                                                   Max.-Head-Change                         Max.-Flux-Residual
  Residual-Control   Outer-Iter.   Inner-Iter.     Column Row Layer    Maximum-Head-Change  Column Row Layer    Maximum-Flux-Residual          L2-NORM 
          0                 1           2             3    3     1       0.4736261735E-02       3    3    1         0.2477194527E+00      0.8223683232E+00
          0                 2           2             3    3     1      -0.4607094757E-03       3    3    1        -0.2477196954E-01      0.8223058609E-01
          0                 3           1             3    3     1       0.3137260374E-04       3    3    1         0.1734038376E-02      0.5755582294E-02

    ------------------------------------------------
       NWT REQUIRED            3 OUTER ITERATIONS 
       AND A TOTAL OF          5 INNER ITERATIONS.
    ------------------------------------------------

 NO OUTPUT CONTROL FOR STRESS PERIOD   16   TIME STEP   30



 STREAM LISTING     PERIOD     16   STEP       30

 LAYER ROW COL. STREAM  RCH.  FLOW INTO     FLOW TO   FLOW OUT OF   OVRLND.     DIRECT     STREAM       STREAM     STREAM     STREAM   STREAMBED  STREAMBED
                SEG.NO.  NO.  STRM. RCH.    AQUIFER    STRM. RCH.    RUNOFF     PRECIP       ET          HEAD       DEPTH      WIDTH   CONDCTNC.   GRADIENT

   1    1    1     1     1    6.6341E+01  3.9373E-01   6.5947E+01  0.000E+00  0.000E+00  0.000E+00  1.09465E+03  1.601E+00  1.902E+01  8.558E-02  1.534E+00
   1    2    2     1     2    6.5947E+01  6.0983E-01   6.5338E+01  0.000E+00  0.000E+00  0.000E+00  1.08965E+03  1.595E+00  1.896E+01  1.327E-01  1.532E+00
   1    3    3     1     3    6.5338E+01  5.2015E-01   6.4817E+01  0.000E+00  0.000E+00  0.000E+00  1.08401E+03  1.588E+00  1.889E+01  1.134E-01  1.529E+00
   1    3    4     1     4    6.4817E+01  4.7905E-01   6.4338E+01  0.000E+00  0.000E+00  0.000E+00  1.07899E+03  1.582E+00  1.884E+01  1.045E-01  1.527E+00
   1    4    5     2     1    6.2338E+01  3.9665E-01   6.1942E+01  0.000E+00  0.000E+00  0.000E+00  1.07402E+03  2.085E+00  1.200E+01  7.800E-02  1.695E+00
   1    5    6     2     2    6.1942E+01  3.0469E-01   6.1637E+01  0.000E+00  0.000E+00  0.000E+00  1.06859E+03  2.078E+00  1.200E+01  6.000E-02  1.693E+00
   1    6    6     2     3    6.1637E+01  3.0432E-01   6.1333E+01  0.000E+00  0.000E+00  0.000E+00  1.06386E+03  2.072E+00  1.200E+01  6.000E-02  1.691E+00
   1    7    6     2     4    6.1333E+01  3.0396E-01   6.1029E+01  0.000E+00  0.000E+00  0.000E+00  1.05914E+03  2.066E+00  1.200E+01  6.000E-02  1.689E+00
   1    8    6     2     5    6.1029E+01  3.0359E-01   6.0725E+01  0.000E+00  0.000E+00  0.000E+00  1.05442E+03  2.060E+00  1.200E+01  6.000E-02  1.687E+00
   1    3    5     3     1    2.0000E+00  2.8252E-01   1.7175E+00  0.000E+00  0.000E+00  0.000E+00  1.07555E+03  1.909E+00  9.636E+00  7.227E-02  1.955E+00
   1    3    6     3     2    1.7175E+00  2.4905E-01   1.4684E+00  0.000E+00  0.000E+00  0.000E+00  1.07264E+03  1.727E+00  8.909E+00  6.682E-02  1.864E+00
   1    3    7     3     3    1.4684E+00  1.9718E-01   1.2712E+00  0.000E+00  0.000E+00  0.000E+00  1.06987E+03  1.555E+00  8.218E+00  5.547E-02  1.777E+00
   1    4    8     3     4    1.2712E+00  2.2567E-01   1.0456E+00  0.000E+00  0.000E+00  0.000E+00  1.06682E+03  1.364E+00  7.455E+00  6.709E-02  1.682E+00
   1    5    8     3     5    1.0456E+00  1.5790E-01   8.8768E-01  0.000E+00  0.000E+00  0.000E+00  1.06362E+03  1.164E+00  6.655E+00  4.991E-02  1.582E+00
   1    6    8     3     6    8.8768E-01  5.5980E-02   8.3170E-01  0.000E+00  0.000E+00  0.000E+00  1.06158E+03  1.036E+00  6.145E+00  1.844E-02  1.518E+00
   1    5   10     4     1    1.0000E+01  9.0919E-02   9.9091E+00  0.000E+00  0.000E+00  0.000E+00  1.07836E+03  6.368E-01  1.000E+01  2.500E-02  1.212E+00
   1    5    9     4     2    9.9091E+00  1.8158E-01   9.7275E+00  0.000E+00  0.000E+00  0.000E+00  1.07154E+03  6.315E-01  1.000E+01  5.000E-02  1.211E+00
   1    6    8     4     3    9.7275E+00  1.2689E-01   9.6006E+00  0.000E+00  0.000E+00  0.000E+00  1.06381E+03  6.256E-01  1.000E+01  3.500E-02  1.209E+00
   1    6    8     5     1    1.0432E+01  2.2686E-01   1.0205E+01  0.000E+00  0.000E+00  0.000E+00  1.05868E+03  6.790E-01  1.542E+01  6.166E-02  1.226E+00
   1    7    7     5     2    1.0205E+01  2.7894E-01   9.9265E+00  0.000E+00  0.000E+00  0.000E+00  1.05417E+03  6.732E-01  1.519E+01  7.594E-02  1.224E+00
   1    8    7     5     3    9.9265E+00  1.9221E-01   9.7343E+00  0.000E+00  0.000E+00  0.000E+00  1.04992E+03  6.676E-01  1.497E+01  5.241E-02  1.223E+00
   1    8    6     5     4    9.7343E+00  1.3577E-01   9.5985E+00  0.000E+00  0.000E+00  0.000E+00  1.04691E+03  6.637E-01  1.482E+01  3.706E-02  1.221E+00
   1    9    6     6     1    7.0324E+01  3.1608E-01   7.0008E+01  0.000E+00  0.000E+00  0.000E+00  1.04500E+03  2.268E+00  1.200E+01  6.000E-02  1.756E+00
   1   10    7     6     2    7.0008E+01  3.1571E-01   6.9692E+01  0.000E+00  0.000E+00  0.000E+00  1.04044E+03  2.262E+00  1.200E+01  6.000E-02  1.754E+00
   1   11    7     6     3    6.9692E+01  3.1534E-01   6.9377E+01  0.000E+00  0.000E+00  0.000E+00  1.03589E+03  2.256E+00  1.200E+01  6.000E-02  1.752E+00
   1   12    7     6     4    6.9377E+01  3.1498E-01   6.9062E+01  0.000E+00  0.000E+00  0.000E+00  1.03134E+03  2.250E+00  1.200E+01  6.000E-02  1.750E+00
   1   13    7     6     5    6.9062E+01  2.6753E-02   6.9035E+01  0.000E+00  0.000E+00  0.000E+00  1.02816E+03  2.246E+00  1.200E+01  2.400E-02  3.716E-01
   1   14    9     7     1    1.5000E+02  1.3400E+00   1.4866E+02  0.000E+00  0.000E+00  0.000E+00  1.03987E+03  2.288E+00  5.529E+01  5.593E-01  7.986E-01
   1   13    8     7     2    1.4866E+02  1.8499E+00   1.4681E+02  0.000E+00  0.000E+00  0.000E+00  1.03478E+03  2.279E+00  5.526E+01  6.148E-01  1.003E+00
   1   13    7     7     3    1.4681E+02  1.4794E+00   1.4533E+02  0.000E+00  0.000E+00  0.000E+00  1.02969E+03  2.270E+00  5.522E+01  5.584E-01  8.830E-01
   1   13    6     8     1    2.1437E+02  1.1074E+00   2.1326E+02  0.000E+00  0.000E+00  0.000E+00  1.02509E+03  3.217E+00  4.665E+01  4.754E-01  7.765E-01
   1   13    5     8     2    2.1326E+02  2.8137E-01   2.1298E+02  0.000E+00  0.000E+00  0.000E+00  1.01884E+03  3.213E+00  4.659E+01  4.748E-01  1.975E-01
   1   13    4     8     3    2.1298E+02 -2.3025E+00   2.1528E+02  0.000E+00  0.000E+00  0.000E+00  1.01259E+03  3.219E+00  4.668E+01  4.756E+00 -1.614E-01
   1   13    3     8     4    2.1528E+02 -3.5915E+00   2.1887E+02  0.000E+00  0.000E+00  0.000E+00  1.00636E+03  3.236E+00  4.692E+01  4.781E+00 -2.504E-01
   1   13    2     8     5    2.1887E+02 -2.5460E+00   2.2142E+02  0.000E+00  0.000E+00  0.000E+00  1.00013E+03  3.253E+00  4.716E+01  4.806E+00 -1.766E-01
   1   13    1     8     6    2.2142E+02 -1.8977E+00   2.2331E+02  0.000E+00  0.000E+00  0.000E+00  9.95140E+02  3.265E+00  4.734E+01  2.895E+00 -2.185E-01
   1    8    6     9     1    0.0000E+00  0.0000E+00   0.0000E+00  0.000E+00  0.000E+00  0.000E+00  1.07875E+03  0.000E+00  4.000E+00  0.000E+00  1.000E+00
   1    8    5     9     2    0.0000E+00  0.0000E+00   0.0000E+00  0.000E+00  0.000E+00  0.000E+00  1.07825E+03  0.000E+00  4.000E+00  0.000E+00  1.000E+00





UNSATURATED ZONE PACKAGE VOLUMETRIC BUDGET FOR  TIME STEP    30 STRESS PERIOD   16
  ------------------------------------------------------------------------------



     CUMULATIVE VOLUMES      L**3       RATES FOR THIS TIME STEP      L**3/T
     ------------------                 ------------------------

           IN:                                      IN:
           ---                                      ---
        INFILTRATION =  1606261179.4468          INFILTRATION =           0.8475

          OUT:                                     OUT:
          ----                                     ----
              UZF ET =   438192687.3408                UZF ET =           0.7500
        UZF RECHARGE =   887717398.7402          UZF RECHARGE =       0.0000E+00

            IN - OUT =   280351093.3657              IN - OUT =       9.7500E-02

          STORAGE:                                 STORAGE:
          --------                                 --------
      STORAGE CHANGE =   280353198.6884        STORAGE CHANGE =       9.7500E-02

 PERCENT DISCREPANCY IS DIFFERENCE BETWEEN IN-OUT MINUS CHANGE IN STORAGE
 DIVIDED BY THE AVERAGE OF IN AND OUT TIMES 100

 PERCENT DISCREPANCY =          -0.00     PERCENT DISCREPANCY =           0.00






1
  VOLUMETRIC BUDGET FOR AGRICULTURAL FIELDS AT  END OF TIME STEP   30, STRESS PERIOD  16
  ------------------------------------------------------------------------------

     CUMULATIVE VOLUMES      L**3       RATES FOR THIS TIME STEP      L**3/T
     ------------------                 ------------------------

           IN:                                      IN:
           ---                                      ---
           AG WELLS      =  1024023808.0000             AG WELLS      =           0.0000
      DIVERSION SEGMENTS =   548718528.0000        DIVERSION SEGMENTS =           0.0000
           GW IRRIGATION =           0.0000             GW IRRIGATION =           0.0000
           SW IRRIGATION =           0.0000             SW IRRIGATION =           0.0000
        SYSTEM LOSSES GW =           0.0000          SYSTEM LOSSES GW =           0.0000
        SYSTEM LOSSES SW =           0.0000          SYSTEM LOSSES SW =           0.0000

                TOTAL IN =  1572742400.0000                  TOTAL IN =           0.0000

          OUT:                                     OUT:
          ----                                     ----
           AG WELLS      =           0.0000             AG WELLS      =           0.0000
      DIVERSION SEGMENTS =           0.0000        DIVERSION SEGMENTS =           0.0000
           GW IRRIGATION =  1024023808.0000             GW IRRIGATION =           0.0000
           SW IRRIGATION =   548729152.0000             SW IRRIGATION =           0.0000
        SYSTEM LOSSES GW =           0.0000          SYSTEM LOSSES GW =           0.0000
        SYSTEM LOSSES SW =           0.0000          SYSTEM LOSSES SW =           0.0000

               TOTAL OUT =  1572752896.0000                 TOTAL OUT =           0.0000

                IN - OUT =      -10496.0000                  IN - OUT =           0.0000

     PERCENT DISCREPANCY =          -0.00         PERCENT DISCREPANCY =           0.00



1
  VOLUMETRIC BUDGET FOR ENTIRE MODEL AT END OF TIME STEP   30, STRESS PERIOD  16
  ------------------------------------------------------------------------------

     CUMULATIVE VOLUMES      L**3       RATES FOR THIS TIME STEP      L**3/T
     ------------------                 ------------------------

           IN:                                      IN:
           ---                                      ---
             STORAGE     =  1137826560.0000               STORAGE     =           1.5986
       CONSTANT HEAD     =           0.0000         CONSTANT HEAD     =           0.0000
     HEAD DEP BOUNDS     =    11300276.0000       HEAD DEP BOUNDS     =           0.2860
      STREAM LEAKAGE     =   474236096.0000        STREAM LEAKAGE     =          13.3644
        UZF RECHARGE     =   887717248.0000          UZF RECHARGE     =           0.0000
               GW ET     =           0.0000                 GW ET     =           0.0000
     SURFACE LEAKAGE     =           0.0000       SURFACE LEAKAGE     =           0.0000
           AG WELLS      =           0.0000             AG WELLS      =           0.0000

                TOTAL IN =  2511079936.0000                  TOTAL IN =          15.2490

          OUT:                                     OUT:
          ----                                     ----
             STORAGE     =  1054014656.0000               STORAGE     =           4.6131
       CONSTANT HEAD     =           0.0000         CONSTANT HEAD     =           0.0000
     HEAD DEP BOUNDS     =    11460632.0000       HEAD DEP BOUNDS     =           0.2962
      STREAM LEAKAGE     =   421520768.0000        STREAM LEAKAGE     =          10.3377
        UZF RECHARGE     =           0.0000          UZF RECHARGE     =           0.0000
               GW ET     =       60999.4844                 GW ET     =       2.8495E-03
     SURFACE LEAKAGE     =           0.0000       SURFACE LEAKAGE     =           0.0000
           AG WELLS      =  1024023808.0000             AG WELLS      =           0.0000

               TOTAL OUT =  2511080960.0000                 TOTAL OUT =          15.2499

                IN - OUT =       -1024.0000                  IN - OUT =      -8.5926E-04

     PERCENT DISCREPANCY =          -0.00         PERCENT DISCREPANCY =          -0.01






         TIME SUMMARY AT END OF TIME STEP   30 IN STRESS PERIOD   16
                    SECONDS     MINUTES      HOURS       DAYS        YEARS
                    -----------------------------------------------------------
   TIME STEP LENGTH  87667.      1461.1      24.352      1.0147     2.77799E-03
 STRESS PERIOD TIME 2.63000E+06  43833.      730.56      30.440     8.33397E-02
         TOTAL TIME 3.95364E+07 6.58940E+05  10982.      457.60      1.2528    
1
1
                            STRESS PERIOD NO.   17, LENGTH =   2630000.    
                            -----------------------------------------------

                              NUMBER OF TIME STEPS =    30

                               MULTIPLIER FOR DELT =     1.000

                            INITIAL TIME STEP SIZE =   87666.66    

 REUSING NON-PARAMETER GHB CELLS FROM LAST STRESS PERIOD

      2 GHB CELLS

 REUSING STREAM SEGMENT DATA FROM LAST STRESS PERIOD



            AREAL INFILTRATION RATE
 READING ON UNIT   19 WITH FORMAT: (FREE)              

            1           2           3           4           5           6           7           8           9          10
 ........................................................................................................................
   1   1.0000E-10  2.0000E-10   0.000       0.000       0.000       0.000       0.000       0.000       0.000       0.000    
   2   2.0000E-10  1.0000E-10  2.0000E-10   0.000       0.000      8.0000E-10  8.0000E-10  5.0000E-10   0.000       0.000    
   3    0.000      5.0000E-10  1.0000E-10  1.0000E-10  8.0000E-10  8.0000E-10  5.0000E-10  5.0000E-10   0.000       0.000    
   4   8.0000E-10  5.0000E-10  1.0000E-10  1.0000E-10  1.0000E-10  1.0000E-10  1.0000E-10  1.0000E-10  2.0000E-10   0.000    
   5   8.0000E-10  5.0000E-10  1.0000E-10  1.0000E-10  1.0000E-10  1.0000E-10  1.0000E-10  1.0000E-10  1.0000E-10  1.0000E-10
   6   8.0000E-10  5.0000E-10  5.0000E-10  2.0000E-10  2.0000E-10  1.0000E-10  1.0000E-10  1.0000E-10  1.0000E-10  5.0000E-10
   7   8.0000E-10  5.0000E-10  5.0000E-10  2.0000E-10  2.0000E-10  1.0000E-10  1.0000E-10  2.0000E-10  2.0000E-10   0.000    
   8    0.000      5.0000E-10  5.0000E-10  2.0000E-10  2.0000E-10  1.0000E-10  1.0000E-10  2.0000E-10  5.0000E-10   0.000    
   9    0.000      5.0000E-10  5.0000E-10  2.0000E-10  2.0000E-10  1.0000E-10  1.0000E-10  2.0000E-10  5.0000E-10   0.000    
  10    0.000      5.0000E-10  5.0000E-10  2.0000E-10  2.0000E-10  1.0000E-10  1.0000E-10  2.0000E-10  5.0000E-10  8.0000E-10
  11    0.000      1.0000E-10  1.0000E-10  1.0000E-10  1.0000E-10  1.0000E-10  1.0000E-10  2.0000E-10  5.0000E-10   0.000    
  12   1.0000E-10  1.0000E-10  1.0000E-10  1.0000E-10  1.0000E-10  1.0000E-10  1.0000E-10  1.0000E-10  2.0000E-10   0.000    
  13   1.0000E-10  1.0000E-10  2.0000E-10  2.0000E-10  2.0000E-10  2.0000E-10  2.0000E-10  1.0000E-10  1.0000E-10   0.000    
  14    0.000      2.0000E-10  5.0000E-10  5.0000E-10  5.0000E-10  5.0000E-10  5.0000E-10  2.0000E-10  1.0000E-10   0.000    
  15    0.000       0.000      8.0000E-10  8.0000E-10  8.0000E-10  8.0000E-10   0.000       0.000       0.000       0.000    

                  ET RATE =  2.500000E-08

 USING ET EXTINCTION DEPTH FROM PREVIOUS STRESS PERIOD. CURRENT PERIOD IS:      17

 USING EXTINCTION WATER CONTENT FROM PREVIOUS STRESS PERIOD. CURRENT PERIOD IS:      17

 USING AIR ENTRY PRESSURE FROM PREVIOUS STRESS PERIOD. CURRENT PERIOD IS:      17

 USING ROOT PRESSURE HEAD FROM PREVIOUS STRESS PERIOD. CURRENT PERIOD IS:      17

 USING ROOT ACTIVITY FROM PREVIOUS STRESS PERIOD. CURRENT PERIOD IS:      17

 PROCESSING AG STRESS PERIOD DATA

 READING AG STRESS PERIOD DATA

 READING IRRIGATION SEGMENT

 READING IRRIGATION WELL

 READING SUPPLEMENTAL WELL

 END PROCESSING AG STRESS PERIOD DATA OPTIONS
 
 SOLVING FOR HEAD 
                                                   Max.-Head-Change                         Max.-Flux-Residual
  Residual-Control   Outer-Iter.   Inner-Iter.     Column Row Layer    Maximum-Head-Change  Column Row Layer    Maximum-Flux-Residual          L2-NORM 
          0                 1           2             4   13     1      -0.7678545205E-02       4   13    1        -0.4534674605E+00      0.1024772040E+01
          0                 2           2             4    7     1      -0.1483061324E+01       5    6    1        -0.7749062180E+02      0.1898094784E+03
          0                 3           2             4    7     1       0.2898998052E+00       5    6    1         0.1560429721E+02      0.3816790337E+02
          0                 4           2             4    7     1      -0.2554347944E+00       5    6    1        -0.1409755987E+02      0.3452221574E+02
          0                 5           2             4    7     1       0.1016358489E-01       5    8    1         0.5770322604E+00      0.1412367479E+01
          0                 6           2             4    7     1      -0.1253220738E-03       5    8    1        -0.7312805573E-02      0.1790086443E-01
          0                 7           1             4    7     1      -0.1843141059E-05       5    8    1        -0.1075500554E-03      0.2632756521E-03

    ------------------------------------------------
       NWT REQUIRED            7 OUTER ITERATIONS 
       AND A TOTAL OF         13 INNER ITERATIONS.
    ------------------------------------------------

 NO OUTPUT CONTROL FOR STRESS PERIOD   17   TIME STEP    1
 
 SOLVING FOR HEAD 
                                                   Max.-Head-Change                         Max.-Flux-Residual
  Residual-Control   Outer-Iter.   Inner-Iter.     Column Row Layer    Maximum-Head-Change  Column Row Layer    Maximum-Flux-Residual          L2-NORM 
          0                 1           2             5    8     1       0.4167301528E-01       5    8    1         0.2303231229E+01      0.5050114613E+01
          0                 2           2             4    7     1      -0.2620410152E+00       5    8    1        -0.1426695042E+02      0.3478697503E+02
          0                 3           2             4    7     1       0.1715262744E+00       5    8    1         0.9490610023E+01      0.2320850086E+02
          0                 4           2             4    7     1      -0.2543719841E+00       5    8    1        -0.1442792062E+02      0.3533956674E+02
          0                 5           2             4    7     1       0.3136109418E-02       4    7    1         0.1827949456E+00      0.4478129110E+00
          0                 6           1             4    7     1       0.4612342853E-04       5    8    1         0.2693744279E-02      0.6604658885E-02

    ------------------------------------------------
       NWT REQUIRED            6 OUTER ITERATIONS 
       AND A TOTAL OF         11 INNER ITERATIONS.
    ------------------------------------------------

 NO OUTPUT CONTROL FOR STRESS PERIOD   17   TIME STEP    2
 
 SOLVING FOR HEAD 
                                                   Max.-Head-Change                         Max.-Flux-Residual
  Residual-Control   Outer-Iter.   Inner-Iter.     Column Row Layer    Maximum-Head-Change  Column Row Layer    Maximum-Flux-Residual          L2-NORM 
          0                 1           2             5    8     1       0.4982768815E-01       5    8    1         0.2751333079E+01      0.6010356042E+01
          0                 2           2             4    7     1      -0.2623046398E+00       5    8    1        -0.1431499642E+02      0.3486785362E+02
          0                 3           2             4    7     1       0.1715448855E+00       5    8    1         0.9481835956E+01      0.2320910339E+02
          0                 4           2             4    7     1      -0.2543738893E+00       5    8    1        -0.1442755787E+02      0.3533958333E+02
          0                 5           2             4    7     1       0.3136151455E-02       4    7    1         0.1827954405E+00      0.4478451614E+00
          0                 6           1             4    7     1       0.4612404653E-04       5    8    1         0.2693684689E-02      0.6605114933E-02

    ------------------------------------------------
       NWT REQUIRED            6 OUTER ITERATIONS 
       AND A TOTAL OF         11 INNER ITERATIONS.
    ------------------------------------------------

 NO OUTPUT CONTROL FOR STRESS PERIOD   17   TIME STEP    3
 
 SOLVING FOR HEAD 
                                                   Max.-Head-Change                         Max.-Flux-Residual
  Residual-Control   Outer-Iter.   Inner-Iter.     Column Row Layer    Maximum-Head-Change  Column Row Layer    Maximum-Flux-Residual          L2-NORM 
          0                 1           2             5    8     1       0.5754642317E-01       5    8    1         0.3175097666E+01      0.6939486196E+01
          0                 2           2             4    7     1      -0.2625773445E+00       5    8    1        -0.1435737186E+02      0.3494473321E+02
          0                 3           2             4    7     1       0.1715642106E+00       5    8    1         0.9484819197E+01      0.2321413939E+02
          0                 4           2             4    7     1      -0.2543758646E+00       5    8    1        -0.1442768148E+02      0.3533979942E+02
          0                 5           2             4    7     1       0.3136175814E-02       4    7    1         0.1827959543E+00      0.4478471683E+00
          0                 6           1             4    7     1       0.4612440498E-04       5    8    1         0.2693706950E-02      0.6605137775E-02

    ------------------------------------------------
       NWT REQUIRED            6 OUTER ITERATIONS 
       AND A TOTAL OF         11 INNER ITERATIONS.
    ------------------------------------------------

 NO OUTPUT CONTROL FOR STRESS PERIOD   17   TIME STEP    4
 
 SOLVING FOR HEAD 
                                                   Max.-Head-Change                         Max.-Flux-Residual
  Residual-Control   Outer-Iter.   Inner-Iter.     Column Row Layer    Maximum-Head-Change  Column Row Layer    Maximum-Flux-Residual          L2-NORM 
          0                 1           2             5    8     1       0.6485929479E-01       5    8    1         0.3576218778E+01      0.7833805384E+01
          0                 2           2             4    7     1      -0.2628581022E+00       5    8    1        -0.1439748288E+02      0.3501905896E+02
          0                 3           2             4    7     1       0.1715841183E+00       5    8    1         0.9487642780E+01      0.2321908819E+02
          0                 4           2             4    7     1      -0.2543779191E+00       5    8    1        -0.1442779845E+02      0.3534000887E+02
          0                 5           2             4    7     1       0.3136201147E-02       4    7    1         0.1827964792E+00      0.4478492181E+00
          0                 6           1             4    7     1       0.4612477765E-04       5    8    1         0.2693727978E-02      0.6605161925E-02

    ------------------------------------------------
       NWT REQUIRED            6 OUTER ITERATIONS 
       AND A TOTAL OF         11 INNER ITERATIONS.
    ------------------------------------------------

 NO OUTPUT CONTROL FOR STRESS PERIOD   17   TIME STEP    5
 
 SOLVING FOR HEAD 
                                                   Max.-Head-Change                         Max.-Flux-Residual
  Residual-Control   Outer-Iter.   Inner-Iter.     Column Row Layer    Maximum-Head-Change  Column Row Layer    Maximum-Flux-Residual          L2-NORM 
          0                 1           2             5    8     1       0.7179354218E-01       5    8    1         0.3956231166E+01      0.8692123695E+01
          0                 2           2             4    7     1      -0.2631459441E+00       5    8    1        -0.1443548298E+02      0.3509090384E+02
          0                 3           2             4    7     1       0.1716045396E+00       5    8    1         0.9490317534E+01      0.2322406695E+02
          0                 4           2             4    7     1      -0.2543800451E+00       5    8    1        -0.1442790924E+02      0.3534021192E+02
          0                 5           2             4    7     1       0.3136227358E-02       4    7    1         0.1827970202E+00      0.4478512523E+00
          0                 6           1             4    7     1       0.4612516288E-04       5    8    1         0.2693747900E-02      0.6605184991E-02

    ------------------------------------------------
       NWT REQUIRED            6 OUTER ITERATIONS 
       AND A TOTAL OF         11 INNER ITERATIONS.
    ------------------------------------------------

 NO OUTPUT CONTROL FOR STRESS PERIOD   17   TIME STEP    6
 
 SOLVING FOR HEAD 
                                                   Max.-Head-Change                         Max.-Flux-Residual
  Residual-Control   Outer-Iter.   Inner-Iter.     Column Row Layer    Maximum-Head-Change  Column Row Layer    Maximum-Flux-Residual          L2-NORM 
          0                 1           2             5    8     1       0.7837482490E-01       5    8    1         0.4316578735E+01      0.9515420238E+01
          0                 2           2             4    7     1      -0.2634399699E+00       5    8    1        -0.1447151656E+02      0.3516041699E+02
          0                 3           2             4    7     1       0.1716254104E+00       5    8    1         0.9492853644E+01      0.2322883008E+02
          0                 4           2             4    7     1      -0.2543822353E+00       5    8    1        -0.1442801425E+02      0.3534040786E+02
          0                 5           2             4    7     1       0.3136254360E-02       4    7    1         0.1827975750E+00      0.4478533492E+00
          0                 6           1             4    7     1       0.4612556009E-04       5    8    1         0.2693766773E-02      0.6605219983E-02

    ------------------------------------------------
       NWT REQUIRED            6 OUTER ITERATIONS 
       AND A TOTAL OF         11 INNER ITERATIONS.
    ------------------------------------------------

 NO OUTPUT CONTROL FOR STRESS PERIOD   17   TIME STEP    7
 
 SOLVING FOR HEAD 
                                                   Max.-Head-Change                         Max.-Flux-Residual
  Residual-Control   Outer-Iter.   Inner-Iter.     Column Row Layer    Maximum-Head-Change  Column Row Layer    Maximum-Flux-Residual          L2-NORM 
          0                 1           2             5    8     1       0.8462636486E-01       5    8    1         0.4658568333E+01      0.1030508866E+02
          0                 2           2             5    7     1      -0.2638343144E+00       5    8    1        -0.1450571431E+02      0.3522770196E+02
          0                 3           2             4    7     1       0.1716466708E+00       5    8    1         0.9495257539E+01      0.2323340873E+02
          0                 4           2             4    7     1      -0.2543844831E+00       5    8    1        -0.1442811368E+02      0.3534059712E+02
          0                 5           2             4    7     1       0.3136282068E-02       4    7    1         0.1827981416E+00      0.4478554106E+00
          0                 6           1             4    7     1       0.4612596715E-04       5    8    1         0.2693786312E-02      0.6605253478E-02

    ------------------------------------------------
       NWT REQUIRED            6 OUTER ITERATIONS 
       AND A TOTAL OF         11 INNER ITERATIONS.
    ------------------------------------------------

 NO OUTPUT CONTROL FOR STRESS PERIOD   17   TIME STEP    8
 
 SOLVING FOR HEAD 
                                                   Max.-Head-Change                         Max.-Flux-Residual
  Residual-Control   Outer-Iter.   Inner-Iter.     Column Row Layer    Maximum-Head-Change  Column Row Layer    Maximum-Flux-Residual          L2-NORM 
          0                 1           2             5    8     1       0.9057014268E-01       5    8    1         0.4983435532E+01      0.1106242877E+02
          0                 2           2             5    7     1      -0.2642888486E+00       5    8    1        -0.1453819981E+02      0.3529283251E+02
          0                 3           2             4    7     1       0.1716682645E+00       5    8    1         0.9497536135E+01      0.2323789082E+02
          0                 4           2             4    7     1      -0.2543867823E+00       5    8    1        -0.1442820777E+02      0.3534078012E+02
          0                 5           2             4    7     1       0.3136310409E-02       4    7    1         0.1827987184E+00      0.4478573923E+00
          0                 6           1             4    7     1       0.4612638430E-04       5    8    1         0.2693805515E-02      0.6605283018E-02

    ------------------------------------------------
       NWT REQUIRED            6 OUTER ITERATIONS 
       AND A TOTAL OF         11 INNER ITERATIONS.
    ------------------------------------------------

 NO OUTPUT CONTROL FOR STRESS PERIOD   17   TIME STEP    9
 
 SOLVING FOR HEAD 
                                                   Max.-Head-Change                         Max.-Flux-Residual
  Residual-Control   Outer-Iter.   Inner-Iter.     Column Row Layer    Maximum-Head-Change  Column Row Layer    Maximum-Flux-Residual          L2-NORM 
          0                 1           2             5    8     1       0.9622602378E-01       5    8    1         0.5292296452E+01      0.1178922219E+02
          0                 2           2             5    7     1      -0.2647335140E+00       5    8    1        -0.1456908466E+02      0.3535592154E+02
          0                 3           2             4    7     1       0.1716901391E+00       5    8    1         0.9499698109E+01      0.2324220637E+02
          0                 4           2             4    7     1      -0.2543891264E+00       5    8    1        -0.1442829692E+02      0.3534095732E+02
          0                 5           2             4    7     1       0.3136339301E-02       4    7    1         0.1827993041E+00      0.4478593168E+00
          0                 6           1             4    7     1       0.4612680918E-04       5    8    1         0.2693822004E-02      0.6605307737E-02

    ------------------------------------------------
       NWT REQUIRED            6 OUTER ITERATIONS 
       AND A TOTAL OF         11 INNER ITERATIONS.
    ------------------------------------------------

 NO OUTPUT CONTROL FOR STRESS PERIOD   17   TIME STEP   10
 
 SOLVING FOR HEAD 
                                                   Max.-Head-Change                         Max.-Flux-Residual
  Residual-Control   Outer-Iter.   Inner-Iter.     Column Row Layer    Maximum-Head-Change  Column Row Layer    Maximum-Flux-Residual          L2-NORM 
          0                 1           2             5    8     1       0.1016126231E+00       5    8    1         0.5586196882E+01      0.1248725847E+02
          0                 2           2             5    7     1      -0.2651683959E+00       5    8    1        -0.1459847346E+02      0.3541705511E+02
          0                 3           2             4    7     1       0.1717122766E+00       5    8    1         0.9501755365E+01      0.2324639014E+02
          0                 4           2             4    7     1      -0.2543915298E+00       5    8    1        -0.1442838174E+02      0.3534112906E+02
          0                 5           2             4    7     1       0.3136368910E-02       4    7    1         0.1827998620E+00      0.4478611737E+00
          0                 6           1             4    7     1       0.4612724458E-04       5    8    1         0.2693837680E-02      0.6605332057E-02

    ------------------------------------------------
       NWT REQUIRED            6 OUTER ITERATIONS 
       AND A TOTAL OF         11 INNER ITERATIONS.
    ------------------------------------------------

 NO OUTPUT CONTROL FOR STRESS PERIOD   17   TIME STEP   11
 
 SOLVING FOR HEAD 
                                                   Max.-Head-Change                         Max.-Flux-Residual
  Residual-Control   Outer-Iter.   Inner-Iter.     Column Row Layer    Maximum-Head-Change  Column Row Layer    Maximum-Flux-Residual          L2-NORM 
          0                 1           2             5    8     1       0.1067472855E+00       5    8    1         0.5866109881E+01      0.1315813264E+02
          0                 2           2             5    7     1      -0.2655935727E+00       5    8    1        -0.1462646352E+02      0.3547632913E+02
          0                 3           2             4    7     1       0.1717345517E+00       5    8    1         0.9503714714E+01      0.2325044778E+02
          0                 4           2             4    7     1      -0.2543939476E+00       5    8    1        -0.1442846252E+02      0.3534129564E+02
          0                 5           2             4    7     1       0.3136398710E-02       4    7    1         0.1828004640E+00      0.4478629918E+00
          0                 6           1             4    7     1       0.4612768279E-04       5    8    1         0.2693852571E-02      0.6605375714E-02

    ------------------------------------------------
       NWT REQUIRED            6 OUTER ITERATIONS 
       AND A TOTAL OF         11 INNER ITERATIONS.
    ------------------------------------------------

 NO OUTPUT CONTROL FOR STRESS PERIOD   17   TIME STEP   12
 
 SOLVING FOR HEAD 
                                                   Max.-Head-Change                         Max.-Flux-Residual
  Residual-Control   Outer-Iter.   Inner-Iter.     Column Row Layer    Maximum-Head-Change  Column Row Layer    Maximum-Flux-Residual          L2-NORM 
          0                 1           2             5    8     1       0.1116457600E+00       5    8    1         0.6132919123E+01      0.1380324206E+02
          0                 2           2             5    7     1      -0.2660091856E+00       5    8    1        -0.1465314320E+02      0.3553380728E+02
          0                 3           2             4    7     1       0.1717569899E+00       5    8    1         0.9505582341E+01      0.2325438457E+02
          0                 4           2             4    7     1      -0.2543963961E+00       5    8    1        -0.1442853950E+02      0.3534145723E+02
          0                 5           2             4    7     1       0.3136428885E-02       4    7    1         0.1828010684E+00      0.4478647598E+00
          0                 6           1             4    7     1       0.4612812648E-04       5    8    1         0.2693866714E-02      0.6605378106E-02

    ------------------------------------------------
       NWT REQUIRED            6 OUTER ITERATIONS 
       AND A TOTAL OF         11 INNER ITERATIONS.
    ------------------------------------------------

 NO OUTPUT CONTROL FOR STRESS PERIOD   17   TIME STEP   13
 
 SOLVING FOR HEAD 
                                                   Max.-Head-Change                         Max.-Flux-Residual
  Residual-Control   Outer-Iter.   Inner-Iter.     Column Row Layer    Maximum-Head-Change  Column Row Layer    Maximum-Flux-Residual          L2-NORM 
          0                 1           2             5    8     1       0.1163228994E+00       5    8    1         0.6387456924E+01      0.1442393323E+02
          0                 2           2             5    6     1      -0.2664155711E+00       5    8    1        -0.1467859575E+02      0.3558956858E+02
          0                 3           2             4    7     1       0.1717795334E+00       5    8    1         0.9507364072E+01      0.2325820563E+02
          0                 4           2             4    7     1      -0.2543988699E+00       5    8    1        -0.1442861293E+02      0.3534161405E+02
          0                 5           2             4    7     1       0.3136459372E-02       4    7    1         0.1828016765E+00      0.4478664791E+00
          0                 6           1             4    7     1       0.4612857522E-04       5    8    1         0.2693880210E-02      0.6605398920E-02

    ------------------------------------------------
       NWT REQUIRED            6 OUTER ITERATIONS 
       AND A TOTAL OF         11 INNER ITERATIONS.
    ------------------------------------------------

 NO OUTPUT CONTROL FOR STRESS PERIOD   17   TIME STEP   14
 
 SOLVING FOR HEAD 
                                                   Max.-Head-Change                         Max.-Flux-Residual
  Residual-Control   Outer-Iter.   Inner-Iter.     Column Row Layer    Maximum-Head-Change  Column Row Layer    Maximum-Flux-Residual          L2-NORM 
          0                 1           2             5    8     1       0.1207924488E+00       5    8    1         0.6630493427E+01      0.1502150038E+02
          0                 2           2             5    6     1      -0.2668503575E+00       5    8    1        -0.1470289818E+02      0.3564368338E+02
          0                 3           2             4    7     1       0.1718021484E+00       5    8    1         0.9509065298E+01      0.2326191574E+02
          0                 4           2             4    7     1      -0.2544013650E+00       5    8    1        -0.1442868304E+02      0.3534176630E+02
          0                 5           2             4    7     1       0.3136490121E-02       4    7    1         0.1828022874E+00      0.4478681524E+00
          0                 6           1             4    7     1       0.4612902754E-04       5    8    1         0.2693893021E-02      0.6605419958E-02

    ------------------------------------------------
       NWT REQUIRED            6 OUTER ITERATIONS 
       AND A TOTAL OF         11 INNER ITERATIONS.
    ------------------------------------------------

 NO OUTPUT CONTROL FOR STRESS PERIOD   17   TIME STEP   15
 
 SOLVING FOR HEAD 
                                                   Max.-Head-Change                         Max.-Flux-Residual
  Residual-Control   Outer-Iter.   Inner-Iter.     Column Row Layer    Maximum-Head-Change  Column Row Layer    Maximum-Flux-Residual          L2-NORM 
          0                 1           2             5    8     1       0.1250670060E+00       5    8    1         0.6862733512E+01      0.1559718418E+02
          0                 2           2             5    6     1      -0.2672671776E+00       5    8    1        -0.1472612098E+02      0.3569621895E+02
          0                 3           2             4    7     1       0.1718248010E+00       5    8    1         0.9510690953E+01      0.2326551945E+02
          0                 4           2             4    7     1      -0.2544038775E+00       5    8    1        -0.1442875001E+02      0.3534191418E+02
          0                 5           2             4    7     1       0.3136521083E-02       4    7    1         0.1828028999E+00      0.4478697811E+00
          0                 6           1             4    7     1       0.4612948266E-04       5    8    1         0.2693905244E-02      0.6605439908E-02

    ------------------------------------------------
       NWT REQUIRED            6 OUTER ITERATIONS 
       AND A TOTAL OF         11 INNER ITERATIONS.
    ------------------------------------------------

 NO OUTPUT CONTROL FOR STRESS PERIOD   17   TIME STEP   16
 
 SOLVING FOR HEAD 
                                                   Max.-Head-Change                         Max.-Flux-Residual
  Residual-Control   Outer-Iter.   Inner-Iter.     Column Row Layer    Maximum-Head-Change  Column Row Layer    Maximum-Flux-Residual          L2-NORM 
          0                 1           2             5    8     1       0.1291585109E+00       5    8    1         0.7084846096E+01      0.1615215774E+02
          0                 2           2             5    6     1      -0.2676670559E+00       5    8    1        -0.1474833105E+02      0.3574723408E+02
          0                 3           2             4    7     1       0.1718474615E+00       5    8    1         0.9512245719E+01      0.2326902105E+02
          0                 4           2             4    7     1      -0.2544064041E+00       5    8    1        -0.1442881406E+02      0.3534205783E+02
          0                 5           2             4    7     1       0.3136552218E-02       4    7    1         0.1828035132E+00      0.4478713577E+00
          0                 6           1             4    7     1       0.4612994069E-04       5    8    1         0.2693916910E-02      0.6605459455E-02

    ------------------------------------------------
       NWT REQUIRED            6 OUTER ITERATIONS 
       AND A TOTAL OF         11 INNER ITERATIONS.
    ------------------------------------------------

 NO OUTPUT CONTROL FOR STRESS PERIOD   17   TIME STEP   17
 
 SOLVING FOR HEAD 
                                                   Max.-Head-Change                         Max.-Flux-Residual
  Residual-Control   Outer-Iter.   Inner-Iter.     Column Row Layer    Maximum-Head-Change  Column Row Layer    Maximum-Flux-Residual          L2-NORM 
          0                 1           2             5    8     1       0.1330778909E+00       5    8    1         0.7297442241E+01      0.1668761091E+02
          0                 2           2             5    6     1      -0.2680509332E+00       5    8    1        -0.1476958949E+02      0.3579679830E+02
          0                 3           2             4    7     1       0.1718701020E+00       5    8    1         0.9513733872E+01      0.2327242476E+02
          0                 4           2             4    7     1      -0.2544089412E+00       5    8    1        -0.1442887536E+02      0.3534219747E+02
          0                 5           2             4    7     1       0.3136583483E-02       4    7    1         0.1828041267E+00      0.4478728880E+00
          0                 6           1             4    7     1       0.4613040052E-04       5    8    1         0.2693928038E-02      0.6605478718E-02

    ------------------------------------------------
       NWT REQUIRED            6 OUTER ITERATIONS 
       AND A TOTAL OF         11 INNER ITERATIONS.
    ------------------------------------------------

 NO OUTPUT CONTROL FOR STRESS PERIOD   17   TIME STEP   18
 
 SOLVING FOR HEAD 
                                                   Max.-Head-Change                         Max.-Flux-Residual
  Residual-Control   Outer-Iter.   Inner-Iter.     Column Row Layer    Maximum-Head-Change  Column Row Layer    Maximum-Flux-Residual          L2-NORM 
          0                 1           2             5    8     1       0.1368352686E+00       5    8    1         0.7501088762E+01      0.1720464626E+02
          0                 2           2             5    6     1      -0.2684197018E+00       5    8    1        -0.1478995299E+02      0.3584497930E+02
          0                 3           2             4    7     1       0.1718926964E+00       5    8    1         0.9515159380E+01      0.2327573445E+02
          0                 4           2             4    7     1      -0.2544114855E+00       5    8    1        -0.1442893406E+02      0.3534233326E+02
          0                 5           2             4    7     1       0.3136614834E-02       4    7    1         0.1828047395E+00      0.4478743916E+00
          0                 6           1             4    7     1       0.4613086146E-04       5    8    1         0.2693938638E-02      0.6605496639E-02

    ------------------------------------------------
       NWT REQUIRED            6 OUTER ITERATIONS 
       AND A TOTAL OF         11 INNER ITERATIONS.
    ------------------------------------------------

 NO OUTPUT CONTROL FOR STRESS PERIOD   17   TIME STEP   19
 
 SOLVING FOR HEAD 
                                                   Max.-Head-Change                         Max.-Flux-Residual
  Residual-Control   Outer-Iter.   Inner-Iter.     Column Row Layer    Maximum-Head-Change  Column Row Layer    Maximum-Flux-Residual          L2-NORM 
          0                 1           2             5    8     1       0.1404402053E+00       5    8    1         0.7696318998E+01      0.1770412895E+02
          0                 2           2             5    6     1      -0.2687741796E+00       5    8    1        -0.1480947487E+02      0.3589181030E+02
          0                 3           2             4    7     1       0.1719152218E+00       5    8    1         0.9516525977E+01      0.2327895374E+02
          0                 4           2             4    7     1      -0.2544140344E+00       5    8    1        -0.1442899033E+02      0.3534246531E+02
          0                 5           2             4    7     1       0.3136646242E-02       4    7    1         0.1828053509E+00      0.4478758584E+00
          0                 6           1             4    7     1       0.4613132342E-04       5    8    1         0.2693948777E-02      0.6605514192E-02

    ------------------------------------------------
       NWT REQUIRED            6 OUTER ITERATIONS 
       AND A TOTAL OF         11 INNER ITERATIONS.
    ------------------------------------------------

 NO OUTPUT CONTROL FOR STRESS PERIOD   17   TIME STEP   20
 
 SOLVING FOR HEAD 
                                                   Max.-Head-Change                         Max.-Flux-Residual
  Residual-Control   Outer-Iter.   Inner-Iter.     Column Row Layer    Maximum-Head-Change  Column Row Layer    Maximum-Flux-Residual          L2-NORM 
          0                 1           2             5    8     1       0.1439015736E+00       5    8    1         0.7883627770E+01      0.1818682257E+02
          0                 2           2             5    6     1      -0.2691151451E+00       5    8    1        -0.1482820463E+02      0.3593735200E+02
          0                 3           2             4    7     1       0.1719376568E+00       5    8    1         0.9517837126E+01      0.2328208594E+02
          0                 4           2             4    7     1      -0.2544165852E+00       5    8    1        -0.1442904431E+02      0.3534259379E+02
          0                 5           2             4    7     1       0.3136677673E-02       4    7    1         0.1828059603E+00      0.4478772882E+00
          0                 6           1             4    7     1       0.4613178571E-04       5    8    1         0.2693958468E-02      0.6605531123E-02

    ------------------------------------------------
       NWT REQUIRED            6 OUTER ITERATIONS 
       AND A TOTAL OF         11 INNER ITERATIONS.
    ------------------------------------------------

 NO OUTPUT CONTROL FOR STRESS PERIOD   17   TIME STEP   21
 
 SOLVING FOR HEAD 
                                                   Max.-Head-Change                         Max.-Flux-Residual
  Residual-Control   Outer-Iter.   Inner-Iter.     Column Row Layer    Maximum-Head-Change  Column Row Layer    Maximum-Flux-Residual          L2-NORM 
          0                 1           2             5    8     1       0.1472274800E+00       5    8    1         0.8063467704E+01      0.1865355968E+02
          0                 2           2             5    6     1      -0.2694433402E+00       5    8    1        -0.1484618753E+02      0.3598165592E+02
          0                 3           2             4    7     1       0.1719599821E+00       5    8    1         0.9519095995E+01      0.2328513472E+02
          0                 4           2             4    7     1      -0.2544191357E+00       5    8    1        -0.1442909613E+02      0.3534271883E+02
          0                 5           2             4    7     1       0.3136709100E-02       4    7    1         0.1828065671E+00      0.4478786820E+00
          0                 6           1             4    7     1       0.4613224789E-04       5    8    1         0.2693967731E-02      0.6605547563E-02

    ------------------------------------------------
       NWT REQUIRED            6 OUTER ITERATIONS 
       AND A TOTAL OF         11 INNER ITERATIONS.
    ------------------------------------------------

 NO OUTPUT CONTROL FOR STRESS PERIOD   17   TIME STEP   22
 
 SOLVING FOR HEAD 
                                                   Max.-Head-Change                         Max.-Flux-Residual
  Residual-Control   Outer-Iter.   Inner-Iter.     Column Row Layer    Maximum-Head-Change  Column Row Layer    Maximum-Flux-Residual          L2-NORM 
          0                 1           2             5    8     1       0.1504257445E+00       5    8    1         0.8236274789E+01      0.1910512411E+02
          0                 2           2             5    6     1      -0.2697594151E+00       5    8    1        -0.1486346716E+02      0.3602476856E+02
          0                 3           2             4    7     1       0.1719821802E+00       5    8    1         0.9520305636E+01      0.2328810315E+02
          0                 4           2             4    7     1      -0.2544216836E+00       5    8    1        -0.1442914592E+02      0.3534284057E+02
          0                 5           2             4    7     1       0.3136740494E-02       4    7    1         0.1828071709E+00      0.4478800426E+00
          0                 6           1             4    7     1       0.4613270973E-04       5    8    1         0.2693976598E-02      0.6605563291E-02

    ------------------------------------------------
       NWT REQUIRED            6 OUTER ITERATIONS 
       AND A TOTAL OF         11 INNER ITERATIONS.
    ------------------------------------------------

 NO OUTPUT CONTROL FOR STRESS PERIOD   17   TIME STEP   23
 
 SOLVING FOR HEAD 
                                                   Max.-Head-Change                         Max.-Flux-Residual
  Residual-Control   Outer-Iter.   Inner-Iter.     Column Row Layer    Maximum-Head-Change  Column Row Layer    Maximum-Flux-Residual          L2-NORM 
          0                 1           2             5    8     1       0.1535035053E+00       5    8    1         0.8402446707E+01      0.1954226041E+02
          0                 2           2             5    6     1      -0.2700640321E+00       5    8    1        -0.1488008330E+02      0.3606673806E+02
          0                 3           2             4    7     1       0.1720042344E+00       5    8    1         0.9521468832E+01      0.2329099433E+02
          0                 4           2             4    7     1      -0.2544242267E+00       5    8    1        -0.1442919379E+02      0.3534295913E+02
          0                 5           2             4    7     1       0.3136771830E-02       4    7    1         0.1828077710E+00      0.4478813695E+00
          0                 6           1             4    7     1       0.4613317067E-04       5    8    1         0.2693985077E-02      0.6605579356E-02

    ------------------------------------------------
       NWT REQUIRED            6 OUTER ITERATIONS 
       AND A TOTAL OF         11 INNER ITERATIONS.
    ------------------------------------------------

 NO OUTPUT CONTROL FOR STRESS PERIOD   17   TIME STEP   24
 
 SOLVING FOR HEAD 
                                                   Max.-Head-Change                         Max.-Flux-Residual
  Residual-Control   Outer-Iter.   Inner-Iter.     Column Row Layer    Maximum-Head-Change  Column Row Layer    Maximum-Flux-Residual          L2-NORM 
          0                 1           2             5    8     1       0.1564672697E+00       5    8    1         0.8562345813E+01      0.1996565823E+02
          0                 2           2             5    6     1      -0.2703577884E+00       5    8    1        -0.1489607218E+02      0.3610760532E+02
          0                 3           2             4    7     1       0.1720261304E+00       5    8    1         0.9522588120E+01      0.2329381107E+02
          0                 4           2             4    7     1      -0.2544267634E+00       5    8    1        -0.1442923984E+02      0.3534307463E+02
          0                 5           2             4    7     1       0.3136803086E-02       4    7    1         0.1828083671E+00      0.4478826651E+00
          0                 6           1             4    7     1       0.4613363028E-04       5    8    1         0.2693993200E-02      0.6605595864E-02

    ------------------------------------------------
       NWT REQUIRED            6 OUTER ITERATIONS 
       AND A TOTAL OF         11 INNER ITERATIONS.
    ------------------------------------------------

 NO OUTPUT CONTROL FOR STRESS PERIOD   17   TIME STEP   25
 
 SOLVING FOR HEAD 
                                                   Max.-Head-Change                         Max.-Flux-Residual
  Residual-Control   Outer-Iter.   Inner-Iter.     Column Row Layer    Maximum-Head-Change  Column Row Layer    Maximum-Flux-Residual          L2-NORM 
          0                 1           2             5    8     1       0.1593235237E+00       5    8    1         0.8716332948E+01      0.2037596124E+02
          0                 2           2             5    6     1      -0.2706412241E+00       5    8    1        -0.1491146988E+02      0.3614741261E+02
          0                 3           2             4    7     1       0.1720478546E+00       5    8    1         0.9523666025E+01      0.2329655615E+02
          0                 4           2             4    7     1      -0.2544292917E+00       5    8    1        -0.1442928418E+02      0.3534318719E+02
          0                 5           2             4    7     1       0.3136834238E-02       4    7    1         0.1828089589E+00      0.4478839295E+00
          0                 6           1             4    7     1       0.4613408831E-04       5    8    1         0.2694001000E-02      0.6605607785E-02

    ------------------------------------------------
       NWT REQUIRED            6 OUTER ITERATIONS 
       AND A TOTAL OF         11 INNER ITERATIONS.
    ------------------------------------------------

 NO OUTPUT CONTROL FOR STRESS PERIOD   17   TIME STEP   26
 
 SOLVING FOR HEAD 
                                                   Max.-Head-Change                         Max.-Flux-Residual
  Residual-Control   Outer-Iter.   Inner-Iter.     Column Row Layer    Maximum-Head-Change  Column Row Layer    Maximum-Flux-Residual          L2-NORM 
          0                 1           2             5    8     1       0.1620778979E+00       5    8    1         0.8864721038E+01      0.2077377611E+02
          0                 2           2             5    7     1      -0.2709185713E+00       5    8    1        -0.1492630770E+02      0.3618619928E+02
          0                 3           2             4    7     1       0.1720693964E+00       5    8    1         0.9524704739E+01      0.2329923223E+02
          0                 4           2             4    7     1      -0.2544318103E+00       5    8    1        -0.1442932691E+02      0.3534329691E+02
          0                 5           2             4    7     1       0.3136865271E-02       4    7    1         0.1828095459E+00      0.4478851645E+00
          0                 6           1             4    7     1       0.4613454466E-04       5    8    1         0.2694008469E-02      0.6605621559E-02

    ------------------------------------------------
       NWT REQUIRED            6 OUTER ITERATIONS 
       AND A TOTAL OF         11 INNER ITERATIONS.
    ------------------------------------------------

 NO OUTPUT CONTROL FOR STRESS PERIOD   17   TIME STEP   27
 
 SOLVING FOR HEAD 
                                                   Max.-Head-Change                         Max.-Flux-Residual
  Residual-Control   Outer-Iter.   Inner-Iter.     Column Row Layer    Maximum-Head-Change  Column Row Layer    Maximum-Flux-Residual          L2-NORM 
          0                 1           2             5    8     1       0.1647359168E+00       5    8    1         0.9007817671E+01      0.2115967793E+02
          0                 2           2             5    7     1      -0.2712227351E+00       5    8    1        -0.1494000230E+02      0.3622399938E+02
          0                 3           2             4    7     1       0.1720907784E+00       5    8    1         0.9525663445E+01      0.2330184175E+02
          0                 4           2             4    7     1      -0.2544343564E+00       5    8    1        -0.1442936636E+02      0.3534340389E+02
          0                 5           2             4    7     1       0.3136896665E-02       4    7    1         0.1828101289E+00      0.4478863700E+00
          0                 6           1             4    7     1       0.4613500639E-04       5    8    1         0.2694014895E-02      0.6605635023E-02

    ------------------------------------------------
       NWT REQUIRED            6 OUTER ITERATIONS 
       AND A TOTAL OF         11 INNER ITERATIONS.
    ------------------------------------------------

 NO OUTPUT CONTROL FOR STRESS PERIOD   17   TIME STEP   28
 
 SOLVING FOR HEAD 
                                                   Max.-Head-Change                         Max.-Flux-Residual
  Residual-Control   Outer-Iter.   Inner-Iter.     Column Row Layer    Maximum-Head-Change  Column Row Layer    Maximum-Flux-Residual          L2-NORM 
          0                 1           2             5    8     1       0.1673386132E+00       5    8    1         0.9146539721E+01      0.2153427873E+02
          0                 2           2             5    7     1      -0.2714977001E+00       5    8    1        -0.1495449058E+02      0.3626086028E+02
          0                 3           2             4    7     1       0.1721119096E+00       5    8    1         0.9526677668E+01      0.2330438719E+02
          0                 4           2             4    7     1      -0.2544368503E+00       5    8    1        -0.1442940805E+02      0.3534350824E+02
          0                 5           2             4    7     1       0.3136927393E-02       4    7    1         0.1828107055E+00      0.4478875484E+00
          0                 6           1             4    7     1       0.4613545860E-04       5    8    1         0.2694022140E-02      0.6605647795E-02

    ------------------------------------------------
       NWT REQUIRED            6 OUTER ITERATIONS 
       AND A TOTAL OF         11 INNER ITERATIONS.
    ------------------------------------------------

 NO OUTPUT CONTROL FOR STRESS PERIOD   17   TIME STEP   29
 
 SOLVING FOR HEAD 
                                                   Max.-Head-Change                         Max.-Flux-Residual
  Residual-Control   Outer-Iter.   Inner-Iter.     Column Row Layer    Maximum-Head-Change  Column Row Layer    Maximum-Flux-Residual          L2-NORM 
          0                 1           2             5    8     1       0.1698414561E+00       5    8    1         0.9281303770E+01      0.2188340359E+02
          0                 2           2             5    7     1      -0.2717753258E+00       5    8    1        -0.1496796592E+02      0.3628017557E+02
          0                 3           2             4    7     1       0.1520424661E+00       5    8    1         0.8419269783E+01      0.2059195172E+02
          0                 4           2             4    7     1      -0.2212790238E+00       5    8    1        -0.1254906625E+02      0.3073761988E+02
          0                 5           2             4    7     1       0.2728171897E-02       4    7    1         0.1589886419E+00      0.3895247656E+00
          0                 6           1             4    7     1       0.4012381159E-04       5    8    1         0.2342980552E-02      0.5744867551E-02

    ------------------------------------------------
       NWT REQUIRED            6 OUTER ITERATIONS 
       AND A TOTAL OF         11 INNER ITERATIONS.
    ------------------------------------------------

 NO OUTPUT CONTROL FOR STRESS PERIOD   17   TIME STEP   30



 STREAM LISTING     PERIOD     17   STEP       30

 LAYER ROW COL. STREAM  RCH.  FLOW INTO     FLOW TO   FLOW OUT OF   OVRLND.     DIRECT     STREAM       STREAM     STREAM     STREAM   STREAMBED  STREAMBED
                SEG.NO.  NO.  STRM. RCH.    AQUIFER    STRM. RCH.    RUNOFF     PRECIP       ET          HEAD       DEPTH      WIDTH   CONDCTNC.   GRADIENT

   1    1    1     1     1    4.9431E+01  3.3436E-01   4.9097E+01  0.000E+00  0.000E+00  0.000E+00  1.09444E+03  1.395E+00  1.690E+01  7.607E-02  1.465E+00
   1    2    2     1     2    4.9097E+01  5.1808E-01   4.8579E+01  0.000E+00  0.000E+00  0.000E+00  1.08945E+03  1.393E+00  1.685E+01  1.179E-01  1.464E+00
   1    3    3     1     3    4.8579E+01  4.4210E-01   4.8137E+01  0.000E+00  0.000E+00  0.000E+00  1.08381E+03  1.390E+00  1.679E+01  1.007E-01  1.463E+00
   1    3    4     1     4    4.8137E+01  4.0732E-01   4.7729E+01  0.000E+00  0.000E+00  0.000E+00  1.07879E+03  1.387E+00  1.673E+01  9.285E-02  1.462E+00
   1    4    5     2     1    4.5729E+01  3.6899E-01   4.5360E+01  0.000E+00  0.000E+00  0.000E+00  1.07366E+03  1.731E+00  1.200E+01  7.800E-02  1.577E+00
   1    5    6     2     2    4.5360E+01  2.8339E-01   4.5077E+01  0.000E+00  0.000E+00  0.000E+00  1.06823E+03  1.723E+00  1.200E+01  6.000E-02  1.574E+00
   1    6    6     2     3    4.5077E+01  2.8300E-01   4.4794E+01  0.000E+00  0.000E+00  0.000E+00  1.06351E+03  1.717E+00  1.200E+01  6.000E-02  1.572E+00
   1    7    6     2     4    4.4794E+01  2.8261E-01   4.4511E+01  0.000E+00  0.000E+00  0.000E+00  1.05879E+03  1.710E+00  1.200E+01  6.000E-02  1.570E+00
   1    8    6     2     5    4.4511E+01  2.8222E-01   4.4229E+01  0.000E+00  0.000E+00  0.000E+00  1.05406E+03  1.704E+00  1.200E+01  6.000E-02  1.568E+00
   1    3    5     3     1    2.0000E+00  2.8252E-01   1.7175E+00  0.000E+00  0.000E+00  0.000E+00  1.07555E+03  1.909E+00  9.636E+00  7.227E-02  1.955E+00
   1    3    6     3     2    1.7175E+00  2.4905E-01   1.4684E+00  0.000E+00  0.000E+00  0.000E+00  1.07264E+03  1.727E+00  8.909E+00  6.682E-02  1.864E+00
   1    3    7     3     3    1.4684E+00  1.9718E-01   1.2712E+00  0.000E+00  0.000E+00  0.000E+00  1.06987E+03  1.555E+00  8.218E+00  5.547E-02  1.777E+00
   1    4    8     3     4    1.2712E+00  2.2567E-01   1.0456E+00  0.000E+00  0.000E+00  0.000E+00  1.06682E+03  1.364E+00  7.455E+00  6.709E-02  1.682E+00
   1    5    8     3     5    1.0456E+00  1.5790E-01   8.8768E-01  0.000E+00  0.000E+00  0.000E+00  1.06362E+03  1.164E+00  6.655E+00  4.991E-02  1.582E+00
   1    6    8     3     6    8.8768E-01  5.5980E-02   8.3170E-01  0.000E+00  0.000E+00  0.000E+00  1.06158E+03  1.036E+00  6.145E+00  1.844E-02  1.518E+00
   1    5   10     4     1    1.0000E+01  9.0919E-02   9.9091E+00  0.000E+00  0.000E+00  0.000E+00  1.07836E+03  6.368E-01  1.000E+01  2.500E-02  1.212E+00
   1    5    9     4     2    9.9091E+00  1.8158E-01   9.7275E+00  0.000E+00  0.000E+00  0.000E+00  1.07154E+03  6.315E-01  1.000E+01  5.000E-02  1.211E+00
   1    6    8     4     3    9.7275E+00  1.2689E-01   9.6006E+00  0.000E+00  0.000E+00  0.000E+00  1.06381E+03  6.256E-01  1.000E+01  3.500E-02  1.209E+00
   1    6    8     5     1    1.0432E+01  2.2686E-01   1.0205E+01  0.000E+00  0.000E+00  0.000E+00  1.05868E+03  6.790E-01  1.542E+01  6.166E-02  1.226E+00
   1    7    7     5     2    1.0205E+01  2.7894E-01   9.9265E+00  0.000E+00  0.000E+00  0.000E+00  1.05417E+03  6.732E-01  1.519E+01  7.594E-02  1.224E+00
   1    8    7     5     3    9.9265E+00  1.9221E-01   9.7343E+00  0.000E+00  0.000E+00  0.000E+00  1.04992E+03  6.676E-01  1.497E+01  5.241E-02  1.223E+00
   1    8    6     5     4    9.7343E+00  1.3577E-01   9.5985E+00  0.000E+00  0.000E+00  0.000E+00  1.04691E+03  6.637E-01  1.482E+01  3.706E-02  1.221E+00
   1    9    6     6     1    9.5985E+00  2.2097E-01   9.3776E+00  0.000E+00  0.000E+00  0.000E+00  1.04341E+03  6.828E-01  1.200E+01  6.000E-02  1.228E+00
   1   10    7     6     2    9.3776E+00  2.2039E-01   9.1572E+00  0.000E+00  0.000E+00  0.000E+00  1.03885E+03  6.732E-01  1.200E+01  6.000E-02  1.224E+00
   1   11    7     6     3    9.1572E+00  2.1981E-01   8.9374E+00  0.000E+00  0.000E+00  0.000E+00  1.03430E+03  6.636E-01  1.200E+01  6.000E-02  1.221E+00
   1   12    7     6     4    8.9374E+00  2.1923E-01   8.7181E+00  0.000E+00  0.000E+00  0.000E+00  1.02974E+03  6.539E-01  1.200E+01  6.000E-02  1.218E+00
   1   13    7     6     5    8.7181E+00 -1.0693E-01   8.8251E+00  0.000E+00  0.000E+00  0.000E+00  1.02656E+03  6.514E-01  1.200E+01  2.400E-01 -1.485E-01
   1   14    9     7     1    1.5000E+02  1.3407E+00   1.4866E+02  0.000E+00  0.000E+00  0.000E+00  1.03987E+03  2.288E+00  5.529E+01  5.593E-01  7.990E-01
   1   13    8     7     2    1.4866E+02  1.8516E+00   1.4681E+02  0.000E+00  0.000E+00  0.000E+00  1.03478E+03  2.279E+00  5.526E+01  6.148E-01  1.004E+00
   1   13    7     7     3    1.4681E+02  1.4987E+00   1.4531E+02  0.000E+00  0.000E+00  0.000E+00  1.02969E+03  2.270E+00  5.522E+01  5.584E-01  8.946E-01
   1   13    6     8     1    1.5413E+02  8.4746E-01   1.5329E+02  0.000E+00  0.000E+00  0.000E+00  1.02472E+03  2.843E+00  4.122E+01  4.200E-01  6.725E-01
   1   13    5     8     2    1.5329E+02  1.1578E-01   1.5317E+02  0.000E+00  0.000E+00  0.000E+00  1.01846E+03  2.839E+00  4.117E+01  4.196E-01  9.199E-02
   1   13    4     8     3    1.5317E+02 -2.6556E+00   1.5583E+02  0.000E+00  0.000E+00  0.000E+00  1.01222E+03  2.848E+00  4.130E+01  4.209E+00 -2.103E-01
   1   13    3     8     4    1.5583E+02 -3.7963E+00   1.5962E+02  0.000E+00  0.000E+00  0.000E+00  1.00600E+03  2.870E+00  4.162E+01  4.241E+00 -2.984E-01
   1   13    2     8     5    1.5962E+02 -2.7282E+00   1.6235E+02  0.000E+00  0.000E+00  0.000E+00  9.99768E+02  2.893E+00  4.194E+01  4.274E+00 -2.128E-01
   1   13    1     8     6    1.6235E+02 -2.1387E+00   1.6449E+02  0.000E+00  0.000E+00  0.000E+00  9.94784E+02  2.909E+00  4.218E+01  2.579E+00 -2.764E-01
   1    8    6     9     1    4.4229E+01  0.0000E+00   4.4229E+01  0.000E+00  0.000E+00  0.000E+00  1.08428E+03  5.530E+00  4.000E+00  0.000E+00  2.843E+00
   1    8    5     9     2    4.4229E+01  0.0000E+00   4.4229E+01  0.000E+00  0.000E+00  0.000E+00  1.08378E+03  5.530E+00  4.000E+00  0.000E+00  2.843E+00





UNSATURATED ZONE PACKAGE VOLUMETRIC BUDGET FOR  TIME STEP    30 STRESS PERIOD   17
  ------------------------------------------------------------------------------



     CUMULATIVE VOLUMES      L**3       RATES FOR THIS TIME STEP      L**3/T
     ------------------                 ------------------------

           IN:                                      IN:
           ---                                      ---
        INFILTRATION =  2083790140.8232          INFILTRATION =         158.3164

          OUT:                                     OUT:
          ----                                     ----
              UZF ET =   450899451.9902                UZF ET =           4.5675
        UZF RECHARGE =   887717398.7402          UZF RECHARGE =       0.0000E+00

            IN - OUT =   745173290.0928              IN - OUT =         153.7489

          STORAGE:                                 STORAGE:
          --------                                 --------
      STORAGE CHANGE =   745173389.0181        STORAGE CHANGE =         153.7489

 PERCENT DISCREPANCY IS DIFFERENCE BETWEEN IN-OUT MINUS CHANGE IN STORAGE
 DIVIDED BY THE AVERAGE OF IN AND OUT TIMES 100

 PERCENT DISCREPANCY =          -0.00     PERCENT DISCREPANCY =           0.00






1
  VOLUMETRIC BUDGET FOR AGRICULTURAL FIELDS AT  END OF TIME STEP   30, STRESS PERIOD  17
  ------------------------------------------------------------------------------

     CUMULATIVE VOLUMES      L**3       RATES FOR THIS TIME STEP      L**3/T
     ------------------                 ------------------------

           IN:                                      IN:
           ---                                      ---
           AG WELLS      =  1366091264.0000             AG WELLS      =         113.2388
      DIVERSION SEGMENTS =   681948032.0000        DIVERSION SEGMENTS =          44.2292
           GW IRRIGATION =           0.0000             GW IRRIGATION =           0.0000
           SW IRRIGATION =           0.0000             SW IRRIGATION =           0.0000
        SYSTEM LOSSES GW =           0.0000          SYSTEM LOSSES GW =           0.0000
        SYSTEM LOSSES SW =           0.0000          SYSTEM LOSSES SW =           0.0000

                TOTAL IN =  2048039296.0000                  TOTAL IN =         157.4680

          OUT:                                     OUT:
          ----                                     ----
           AG WELLS      =           0.0000             AG WELLS      =           0.0000
      DIVERSION SEGMENTS =           0.0000        DIVERSION SEGMENTS =           0.0000
           GW IRRIGATION =  1366091264.0000             GW IRRIGATION =         113.2388
           SW IRRIGATION =   681960576.0000             SW IRRIGATION =          44.2301
        SYSTEM LOSSES GW =           0.0000          SYSTEM LOSSES GW =           0.0000
        SYSTEM LOSSES SW =           0.0000          SYSTEM LOSSES SW =           0.0000

               TOTAL OUT =  2048051840.0000                 TOTAL OUT =         157.4689

                IN - OUT =      -12544.0000                  IN - OUT =      -8.8501E-04

     PERCENT DISCREPANCY =          -0.00         PERCENT DISCREPANCY =          -0.00



1
  VOLUMETRIC BUDGET FOR ENTIRE MODEL AT END OF TIME STEP   30, STRESS PERIOD  17
  ------------------------------------------------------------------------------

     CUMULATIVE VOLUMES      L**3       RATES FOR THIS TIME STEP      L**3/T
     ------------------                 ------------------------

           IN:                                      IN:
           ---                                      ---
             STORAGE     =  1485325056.0000               STORAGE     =         113.3904
       CONSTANT HEAD     =           0.0000         CONSTANT HEAD     =           0.0000
     HEAD DEP BOUNDS     =    12052640.0000       HEAD DEP BOUNDS     =           0.2861
      STREAM LEAKAGE     =   506507424.0000        STREAM LEAKAGE     =          12.1382
        UZF RECHARGE     =   887717248.0000          UZF RECHARGE     =           0.0000
               GW ET     =           0.0000                 GW ET     =           0.0000
     SURFACE LEAKAGE     =           0.0000       SURFACE LEAKAGE     =           0.0000
           AG WELLS      =           0.0000             AG WELLS      =           0.0000

                TOTAL IN =  2891602432.0000                  TOTAL IN =         125.8147

          OUT:                                     OUT:
          ----                                     ----
             STORAGE     =  1058932224.0000               STORAGE     =           0.8605
       CONSTANT HEAD     =           0.0000         CONSTANT HEAD     =           0.0000
     HEAD DEP BOUNDS     =    12228476.0000       HEAD DEP BOUNDS     =           0.2893
      STREAM LEAKAGE     =   454243936.0000        STREAM LEAKAGE     =          11.4258
        UZF RECHARGE     =           0.0000          UZF RECHARGE     =           0.0000
               GW ET     =      106432.0312                 GW ET     =           0.0000
     SURFACE LEAKAGE     =           0.0000       SURFACE LEAKAGE     =           0.0000
           AG WELLS      =  1366091264.0000             AG WELLS      =         113.2388

               TOTAL OUT =  2891602432.0000                 TOTAL OUT =         125.8145

                IN - OUT =           0.0000                  IN - OUT =       1.9073E-04

     PERCENT DISCREPANCY =           0.00         PERCENT DISCREPANCY =           0.00






         TIME SUMMARY AT END OF TIME STEP   30 IN STRESS PERIOD   17
                    SECONDS     MINUTES      HOURS       DAYS        YEARS
                    -----------------------------------------------------------
   TIME STEP LENGTH  87667.      1461.1      24.352      1.0147     2.77799E-03
 STRESS PERIOD TIME 2.63000E+06  43833.      730.56      30.440     8.33397E-02
         TOTAL TIME 4.21664E+07 7.02774E+05  11713.      488.04      1.3362    
1
1
                            STRESS PERIOD NO.   18, LENGTH =   2630000.    
                            -----------------------------------------------

                              NUMBER OF TIME STEPS =    30

                               MULTIPLIER FOR DELT =     1.000

                            INITIAL TIME STEP SIZE =   87666.66    

 REUSING NON-PARAMETER GHB CELLS FROM LAST STRESS PERIOD

      2 GHB CELLS

 REUSING STREAM SEGMENT DATA FROM LAST STRESS PERIOD



            AREAL INFILTRATION RATE
 READING ON UNIT   19 WITH FORMAT: (FREE)              

            1           2           3           4           5           6           7           8           9          10
 ........................................................................................................................
   1   1.0000E-10  2.0000E-10   0.000       0.000       0.000       0.000       0.000       0.000       0.000       0.000    
   2   2.0000E-10  1.0000E-10  2.0000E-10   0.000       0.000      8.0000E-10  8.0000E-10  5.0000E-10   0.000       0.000    
   3    0.000      5.0000E-10  1.0000E-10  1.0000E-10  8.0000E-10  8.0000E-10  5.0000E-10  5.0000E-10   0.000       0.000    
   4   8.0000E-10  5.0000E-10  1.0000E-10  1.0000E-10  1.0000E-10  1.0000E-10  1.0000E-10  1.0000E-10  2.0000E-10   0.000    
   5   8.0000E-10  5.0000E-10  1.0000E-10  1.0000E-10  1.0000E-10  1.0000E-10  1.0000E-10  1.0000E-10  1.0000E-10  1.0000E-10
   6   8.0000E-10  5.0000E-10  5.0000E-10  2.0000E-10  2.0000E-10  1.0000E-10  1.0000E-10  1.0000E-10  1.0000E-10  5.0000E-10
   7   8.0000E-10  5.0000E-10  5.0000E-10  2.0000E-10  2.0000E-10  1.0000E-10  1.0000E-10  2.0000E-10  2.0000E-10   0.000    
   8    0.000      5.0000E-10  5.0000E-10  2.0000E-10  2.0000E-10  1.0000E-10  1.0000E-10  2.0000E-10  5.0000E-10   0.000    
   9    0.000      5.0000E-10  5.0000E-10  2.0000E-10  2.0000E-10  1.0000E-10  1.0000E-10  2.0000E-10  5.0000E-10   0.000    
  10    0.000      5.0000E-10  5.0000E-10  2.0000E-10  2.0000E-10  1.0000E-10  1.0000E-10  2.0000E-10  5.0000E-10  8.0000E-10
  11    0.000      1.0000E-10  1.0000E-10  1.0000E-10  1.0000E-10  1.0000E-10  1.0000E-10  2.0000E-10  5.0000E-10   0.000    
  12   1.0000E-10  1.0000E-10  1.0000E-10  1.0000E-10  1.0000E-10  1.0000E-10  1.0000E-10  1.0000E-10  2.0000E-10   0.000    
  13   1.0000E-10  1.0000E-10  2.0000E-10  2.0000E-10  2.0000E-10  2.0000E-10  2.0000E-10  1.0000E-10  1.0000E-10   0.000    
  14    0.000      2.0000E-10  5.0000E-10  5.0000E-10  5.0000E-10  5.0000E-10  5.0000E-10  2.0000E-10  1.0000E-10   0.000    
  15    0.000       0.000      8.0000E-10  8.0000E-10  8.0000E-10  8.0000E-10   0.000       0.000       0.000       0.000    

                  ET RATE =  5.000000E-08

 USING ET EXTINCTION DEPTH FROM PREVIOUS STRESS PERIOD. CURRENT PERIOD IS:      18

 USING EXTINCTION WATER CONTENT FROM PREVIOUS STRESS PERIOD. CURRENT PERIOD IS:      18

 USING AIR ENTRY PRESSURE FROM PREVIOUS STRESS PERIOD. CURRENT PERIOD IS:      18

 USING ROOT PRESSURE HEAD FROM PREVIOUS STRESS PERIOD. CURRENT PERIOD IS:      18

 USING ROOT ACTIVITY FROM PREVIOUS STRESS PERIOD. CURRENT PERIOD IS:      18

 PROCESSING AG STRESS PERIOD DATA

 READING AG STRESS PERIOD DATA

 READING IRRIGATION SEGMENT

 READING IRRIGATION WELL

 READING SUPPLEMENTAL WELL

 END PROCESSING AG STRESS PERIOD DATA OPTIONS
 
 SOLVING FOR HEAD 
                                                   Max.-Head-Change                         Max.-Flux-Residual
  Residual-Control   Outer-Iter.   Inner-Iter.     Column Row Layer    Maximum-Head-Change  Column Row Layer    Maximum-Flux-Residual          L2-NORM 
          0                 1           2             5    8     1       0.1718661627E+00       5    8    1         0.9389625782E+01      0.2217180159E+02
          0                 2           2             5    8     1      -0.1671745641E-01       5    8    1        -0.9389308265E+00      0.2221443049E+01
          0                 3           2             5    8     1       0.1138424404E-02       5    8    1         0.6572548664E-01      0.1554986998E+00
          0                 4           1             5    8     1      -0.4529895171E-04       5    8    1        -0.2688174751E-02      0.6358948601E-02

    ------------------------------------------------
       NWT REQUIRED            4 OUTER ITERATIONS 
       AND A TOTAL OF          7 INNER ITERATIONS.
    ------------------------------------------------

 NO OUTPUT CONTROL FOR STRESS PERIOD   18   TIME STEP    1
 
 SOLVING FOR HEAD 
                                                   Max.-Head-Change                         Max.-Flux-Residual
  Residual-Control   Outer-Iter.   Inner-Iter.     Column Row Layer    Maximum-Head-Change  Column Row Layer    Maximum-Flux-Residual          L2-NORM 
          0                 1           2             5    8     1       0.1636175250E+00       5    8    1         0.8931094480E+01      0.2134043933E+02
          0                 2           2             5    8     1      -0.5349742885E-01       5    8    1        -0.2962664884E+01      0.6987651364E+01
          0                 3           2             4    7     1       0.4077969983E-01       5    8    1         0.2276971440E+01      0.5550713182E+01
          0                 4           2             4    7     1      -0.6205070509E-01       5    8    1        -0.3519665731E+01      0.8658192610E+01
          0                 5           2             4    7     1       0.5955934460E-01       4    7    1         0.3471131548E+01      0.8502503209E+01
          0                 6           2             4    7     1      -0.9386745333E-01       4    7    1        -0.5622168918E+01      0.1377601456E+02
          0                 7           2             4    7     1       0.2093222144E-01       4    7    1         0.1288343154E+01      0.3155744010E+01
          0                 8           2             4    7     1      -0.3843691693E-01       4    7    1        -0.2430846732E+01      0.5954319091E+01
          0                 9           2             4    7     1      -0.3536898343E-02       5    8    1        -0.2237075526E+00      0.5479443832E+00
          0                10           2             4    7     1      -0.3254230288E-03       5    8    1        -0.2058460803E-01      0.5041833305E-01
          0                11           1             4    7     1      -0.2993826872E-04       5    8    1        -0.1893852404E-02      0.4638606791E-02

    ------------------------------------------------
       NWT REQUIRED           11 OUTER ITERATIONS 
       AND A TOTAL OF         21 INNER ITERATIONS.
    ------------------------------------------------

 NO OUTPUT CONTROL FOR STRESS PERIOD   18   TIME STEP    2
 
 SOLVING FOR HEAD 
                                                   Max.-Head-Change                         Max.-Flux-Residual
  Residual-Control   Outer-Iter.   Inner-Iter.     Column Row Layer    Maximum-Head-Change  Column Row Layer    Maximum-Flux-Residual          L2-NORM 
          0                 1           2             5    8     1       0.3961409157E+00       5    8    1         0.2176163604E+02      0.2892867254E+02
          0                 2           2             5    6     1      -0.2266559636E+00       5    6    1        -0.1247858235E+02      0.2764369517E+02
          0                 3           2             4    7     1       0.1425592640E+00       5    6    1         0.7889974142E+01      0.1865741015E+02
          0                 4           2             4    7     1      -0.2105185288E+00       5    6    1        -0.1193960201E+02      0.2800053904E+02
          0                 5           2             5    8     1      -0.7480889065E-01       5    8    1        -0.4489810349E+01      0.4502540401E+01
          0                 6           2             5    8     1      -0.3809593062E-01       5    8    1        -0.2284025283E+01      0.2284029956E+01
          0                 7           2             5    8     1      -0.1939991809E-01       5    8    1        -0.1163035860E+01      0.1163039338E+01
          0                 8           2             5    8     1      -0.9879095344E-02       5    8    1        -0.5922472766E+00      0.5922493183E+00
          0                 9           1             5    8     1      -0.5030722702E-02       5    8    1        -0.3015860403E+00      0.3015870923E+00
          0                10           1             5    8     1      -0.2561766114E-02       5    8    1        -0.1535733030E+00      0.1535738393E+00
                                                   Max.-Head-Change                         Max.-Flux-Residual
  Residual-Control   Outer-Iter.   Inner-Iter.     Column Row Layer    Maximum-Head-Change  Column Row Layer    Maximum-Flux-Residual          L2-NORM 
          0                11           1             5    8     1      -0.1304501117E-02       5    8    1        -0.7820171145E-01      0.7820198460E-01
          0                12           1             5    8     1      -0.6642710227E-03       5    8    1        -0.3982105322E-01      0.3982119232E-01
          0                13           1             5    8     1      -0.3382532913E-03       5    8    1        -0.2027706703E-01      0.2027713786E-01
          0                14           1             5    8     1      -0.1722402402E-03       5    8    1        -0.1032507986E-01      0.1032511593E-01
          0                15           1             5    8     1      -0.8770474301E-04       5    8    1        -0.5257479402E-02      0.5257497771E-02

    ------------------------------------------------
       NWT REQUIRED           15 OUTER ITERATIONS 
       AND A TOTAL OF         23 INNER ITERATIONS.
    ------------------------------------------------

 NO OUTPUT CONTROL FOR STRESS PERIOD   18   TIME STEP    3
 
 SOLVING FOR HEAD 
                                                   Max.-Head-Change                         Max.-Flux-Residual
  Residual-Control   Outer-Iter.   Inner-Iter.     Column Row Layer    Maximum-Head-Change  Column Row Layer    Maximum-Flux-Residual          L2-NORM 
          0                 1           2             5    8     1       0.6390138339E+00       5    8    1         0.3514892567E+02      0.4012819155E+02
          0                 2           2             5    6     1      -0.2267777879E+00       5    6    1        -0.1248623033E+02      0.2807639869E+02
          0                 3           2             5    8     1       0.1690095933E+00       5    8    1         0.9089982663E+01      0.1982835554E+02
          0                 4           2             4    7     1      -0.2105084930E+00       5    6    1        -0.1193962371E+02      0.2765738687E+02
          0                 5           2             5    8     1      -0.6460064402E-01       5    8    1        -0.3670198797E+01      0.3685232370E+01
          0                 6           2             5    8     1      -0.3109938369E-01       5    8    1        -0.1764649404E+01      0.1764658285E+01
          0                 7           2             5    8     1      -0.1497139934E-01       5    8    1        -0.8494442946E+00      0.8494555578E+00
          0                 8           2             5    8     1      -0.7207235741E-02       5    8    1        -0.4089157801E+00      0.4089217522E+00
          0                 9           1             5    8     1      -0.3469530698E-02       5    8    1        -0.1968480750E+00      0.1968509738E+00
          0                10           1             5    8     1      -0.1670199661E-02       5    8    1        -0.9475988862E-01      0.9476128513E-01
                                                   Max.-Head-Change                         Max.-Flux-Residual
  Residual-Control   Outer-Iter.   Inner-Iter.     Column Row Layer    Maximum-Head-Change  Column Row Layer    Maximum-Flux-Residual          L2-NORM 
          0                11           1             5    8     1      -0.8040104369E-03       5    8    1        -0.4561562979E-01      0.4561630210E-01
          0                12           1             5    8     1      -0.3870353329E-03       5    8    1        -0.2195828897E-01      0.2195861260E-01
          0                13           1             5    8     1      -0.1863095738E-03       5    8    1        -0.1057009698E-01      0.1057025277E-01
          0                14           1             5    8     1      -0.8968407996E-04       5    8    1        -0.5088093563E-02      0.5088168563E-02

    ------------------------------------------------
       NWT REQUIRED           14 OUTER ITERATIONS 
       AND A TOTAL OF         22 INNER ITERATIONS.
    ------------------------------------------------

 NO OUTPUT CONTROL FOR STRESS PERIOD   18   TIME STEP    4
 
 SOLVING FOR HEAD 
                                                   Max.-Head-Change                         Max.-Flux-Residual
  Residual-Control   Outer-Iter.   Inner-Iter.     Column Row Layer    Maximum-Head-Change  Column Row Layer    Maximum-Flux-Residual          L2-NORM 
          0                 1           2             5    8     1       0.5923440027E+00       5    8    1         0.3253480076E+02      0.3812042306E+02
          0                 2           2             5    6     1      -0.2269535009E+00       5    6    1        -0.1249464873E+02      0.2797113158E+02
          0                 3           2             5    8     1       0.1588216238E+00       5    8    1         0.8527778038E+01      0.1958153873E+02
          0                 4           2             4    7     1      -0.2105127955E+00       5    6    1        -0.1193964791E+02      0.2772800020E+02
          0                 5           2             5    8     1      -0.6682066564E-01       5    8    1        -0.3796476081E+01      0.3810994132E+01
          0                 6           2             5    8     1      -0.3216521139E-01       5    8    1        -0.1825268861E+01      0.1825278016E+01
          0                 7           2             5    8     1      -0.1548309238E-01       5    8    1        -0.8785457409E+00      0.8785574741E+00
          0                 8           2             5    8     1      -0.7452890202E-02       5    8    1        -0.4228867080E+00      0.4228929173E+00
          0                 9           1             5    8     1      -0.3587462878E-02       5    8    1        -0.2035551107E+00      0.2035581239E+00
          0                10           1             5    8     1      -0.1726814785E-02       5    8    1        -0.9797968958E-01      0.9798114105E-01
                                                   Max.-Head-Change                         Max.-Flux-Residual
  Residual-Control   Outer-Iter.   Inner-Iter.     Column Row Layer    Maximum-Head-Change  Column Row Layer    Maximum-Flux-Residual          L2-NORM 
          0                11           1             5    8     1      -0.8311889079E-03       5    8    1        -0.4716131162E-01      0.4716201033E-01
          0                12           1             5    8     1      -0.4000823123E-03       5    8    1        -0.2270028861E-01      0.2270062493E-01
          0                13           1             5    8     1      -0.1925726442E-03       5    8    1        -0.1092628535E-01      0.1092644723E-01
          0                14           1             5    8     1      -0.9269055089E-04       5    8    1        -0.5259074684E-02      0.5259152614E-02

    ------------------------------------------------
       NWT REQUIRED           14 OUTER ITERATIONS 
       AND A TOTAL OF         22 INNER ITERATIONS.
    ------------------------------------------------

 NO OUTPUT CONTROL FOR STRESS PERIOD   18   TIME STEP    5
 
 SOLVING FOR HEAD 
                                                   Max.-Head-Change                         Max.-Flux-Residual
  Residual-Control   Outer-Iter.   Inner-Iter.     Column Row Layer    Maximum-Head-Change  Column Row Layer    Maximum-Flux-Residual          L2-NORM 
          0                 1           2             5    8     1       0.5518918141E+00       5    8    1         0.3026966563E+02      0.3648990652E+02
          0                 2           2             5    6     1      -0.2271354610E+00       5    6    1        -0.1250362230E+02      0.2792339986E+02
          0                 3           2             5    8     1       0.1499941152E+00       5    8    1         0.8040585528E+01      0.1937841398E+02
          0                 4           2             4    7     1      -0.2105169455E+00       5    6    1        -0.1193967368E+02      0.2779104954E+02
          0                 5           2             5    8     1      -0.6874350320E-01       5    8    1        -0.3905866473E+01      0.3919964700E+01
          0                 6           2             5    8     1      -0.3308819453E-01       5    8    1        -0.1877772261E+01      0.1877781670E+01
          0                 7           2             5    8     1      -0.1592612676E-01       5    8    1        -0.9037463530E+00      0.9037584970E+00
          0                 8           2             5    8     1      -0.7665544170E-02       5    8    1        -0.4349827373E+00      0.4349891537E+00
          0                 9           1             5    8     1      -0.3689533756E-02       5    8    1        -0.2093610041E+00      0.2093641172E+00
          0                10           1             5    8     1      -0.1775806478E-02       5    8    1        -0.1007663760E+00      0.1007678755E+00
                                                   Max.-Head-Change                         Max.-Flux-Residual
  Residual-Control   Outer-Iter.   Inner-Iter.     Column Row Layer    Maximum-Head-Change  Column Row Layer    Maximum-Flux-Residual          L2-NORM 
          0                11           1             5    8     1      -0.8547033790E-03       5    8    1        -0.4849882950E-01      0.4849955126E-01
          0                12           1             5    8     1      -0.4113683146E-03       5    8    1        -0.2334224180E-01      0.2334258918E-01
          0                13           1             5    8     1      -0.1979893739E-03       5    8    1        -0.1123439077E-01      0.1123455796E-01
          0                14           1             5    8     1      -0.9529026962E-04       5    8    1        -0.5406947204E-02      0.5407027728E-02

    ------------------------------------------------
       NWT REQUIRED           14 OUTER ITERATIONS 
       AND A TOTAL OF         22 INNER ITERATIONS.
    ------------------------------------------------

 NO OUTPUT CONTROL FOR STRESS PERIOD   18   TIME STEP    6
 
 SOLVING FOR HEAD 
                                                   Max.-Head-Change                         Max.-Flux-Residual
  Residual-Control   Outer-Iter.   Inner-Iter.     Column Row Layer    Maximum-Head-Change  Column Row Layer    Maximum-Flux-Residual          L2-NORM 
          0                 1           2             5    8     1       0.4715659946E+00       5    8    1         0.2580819397E+02      0.3319182910E+02
          0                 2           2             5    7     1      -0.2275127936E+00       4    8    1        -0.1253498799E+02      0.2786530478E+02
          0                 3           2             4    7     1       0.1426478962E+00       4    8    1         0.7893945064E+01      0.1897798661E+02
          0                 4           2             4    7     1      -0.2105234010E+00       5    6    1        -0.1193970059E+02      0.2794037838E+02
          0                 5           2             5    8     1      -0.7237122194E-01       5    8    1        -0.4111942096E+01      0.4125305839E+01
          0                 6           2             5    8     1      -0.3447456172E-01       5    8    1        -0.1956537702E+01      0.1956547685E+01
          0                 7           2             5    8     1      -0.1642204148E-01       5    8    1        -0.9319303685E+00      0.9319432366E+00
          0                 8           2             5    8     1      -0.7822600401E-02       5    8    1        -0.4439152709E+00      0.4439219892E+00
          0                 9           1             5    8     1      -0.3726239119E-02       5    8    1        -0.2114535215E+00      0.2114567472E+00
          0                10           1             5    8     1      -0.1774948886E-02       5    8    1        -0.1007223267E+00      0.1007238643E+00
                                                   Max.-Head-Change                         Max.-Flux-Residual
  Residual-Control   Outer-Iter.   Inner-Iter.     Column Row Layer    Maximum-Head-Change  Column Row Layer    Maximum-Flux-Residual          L2-NORM 
          0                11           1             5    8     1      -0.8454667397E-03       5    8    1        -0.4797690830E-01      0.4797764081E-01
          0                12           1             5    8     1      -0.4027195806E-03       5    8    1        -0.2285253416E-01      0.2285288308E-01
          0                13           1             5    8     1      -0.1918246895E-03       5    8    1        -0.1088509045E-01      0.1088525668E-01
          0                14           1             5    8     1      -0.9136961603E-04       5    8    1        -0.5184719544E-02      0.5184798766E-02

    ------------------------------------------------
       NWT REQUIRED           14 OUTER ITERATIONS 
       AND A TOTAL OF         22 INNER ITERATIONS.
    ------------------------------------------------

 NO OUTPUT CONTROL FOR STRESS PERIOD   18   TIME STEP    7
 
 SOLVING FOR HEAD 
                                                   Max.-Head-Change                         Max.-Flux-Residual
  Residual-Control   Outer-Iter.   Inner-Iter.     Column Row Layer    Maximum-Head-Change  Column Row Layer    Maximum-Flux-Residual          L2-NORM 
          0                 1           2             5    8     1       0.4245111986E+00       5    8    1         0.2319191074E+02      0.3147252470E+02
          0                 2           2             5    7     1      -0.2286062904E+00       4    8    1        -0.1257411039E+02      0.2794125071E+02
          0                 3           2             4    7     1       0.1426647315E+00       4    8    1         0.7896649515E+01      0.1870486203E+02
          0                 4           2             4    7     1      -0.2105310439E+00       4    8    1        -0.1193992580E+02      0.2804045368E+02
          0                 5           2             5    8     1      -0.7206404126E-01       5    8    1        -0.4326660668E+01      0.4339870355E+01
          0                 6           2             5    8     1      -0.3484672969E-01       5    8    1        -0.2089898739E+01      0.2089903745E+01
          0                 7           2             5    8     1      -0.1685002611E-01       5    8    1        -0.1010492305E+01      0.1010495699E+01
          0                 8           2             5    8     1      -0.8147689724E-02       5    8    1        -0.4886067844E+00      0.4886086954E+00
          0                 9           1             5    8     1      -0.3939705644E-02       5    8    1        -0.2362565301E+00      0.2362574663E+00
          0                10           1             5    8     1      -0.1904971453E-02       5    8    1        -0.1142362593E+00      0.1142367126E+00
                                                   Max.-Head-Change                         Max.-Flux-Residual
  Residual-Control   Outer-Iter.   Inner-Iter.     Column Row Layer    Maximum-Head-Change  Column Row Layer    Maximum-Flux-Residual          L2-NORM 
          0                11           1             5    8     1      -0.9211038157E-03       5    8    1        -0.5523567646E-01      0.5523589568E-01
          0                12           1             5    8     1      -0.4453732272E-03       5    8    1        -0.2670735369E-01      0.2670745969E-01
          0                13           1             5    8     1      -0.2153451274E-03       5    8    1        -0.1291330728E-01      0.1291335854E-01
          0                14           1             5    8     1      -0.1041217384E-03       5    8    1        -0.6243664316E-02      0.6243689105E-02
          0                15           1             5    8     1      -0.5034347546E-04       5    8    1        -0.3018818706E-02      0.3018830740E-02

    ------------------------------------------------
       NWT REQUIRED           15 OUTER ITERATIONS 
       AND A TOTAL OF         23 INNER ITERATIONS.
    ------------------------------------------------

 NO OUTPUT CONTROL FOR STRESS PERIOD   18   TIME STEP    8
 
 SOLVING FOR HEAD 
                                                   Max.-Head-Change                         Max.-Flux-Residual
  Residual-Control   Outer-Iter.   Inner-Iter.     Column Row Layer    Maximum-Head-Change  Column Row Layer    Maximum-Flux-Residual          L2-NORM 
          0                 1           2             4    8     1       0.3731679836E+00       4    8    1         0.1996741717E+02      0.3288573650E+02
          0                 2           2             5    7     1      -0.2296216066E+00       5    7    1        -0.1259349701E+02      0.2530023567E+02
          0                 3           2             4    7     1       0.1422567028E+00       5    7    1         0.7897993215E+01      0.1764112554E+02
          0                 4           2             4    7     1      -0.2098385275E+00       5    7    1        -0.1193997849E+02      0.2694008672E+02
          0                 5           2             4    8     1      -0.7829320545E-01       4    8    1        -0.4549595935E+01      0.6417116991E+01
          0                 6           2             4    8     1      -0.4076919503E-01       4    8    1        -0.2370240117E+01      0.3237020139E+01
          0                 7           2             4    8     1      -0.2121112610E-01       4    8    1        -0.1234163994E+01      0.1638665652E+01
          0                 8           2             4    8     1      -0.1102685149E-01       4    8    1        -0.6420754617E+00      0.8310854722E+00
          0                 9           2             4    8     1      -0.5728288251E-02       4    8    1        -0.3337775679E+00      0.4222201400E+00
          0                10           2             4    8     1      -0.2973789044E-02       4    8    1        -0.1733862463E+00      0.2148354255E+00
                                                   Max.-Head-Change                         Max.-Flux-Residual
  Residual-Control   Outer-Iter.   Inner-Iter.     Column Row Layer    Maximum-Head-Change  Column Row Layer    Maximum-Flux-Residual          L2-NORM 
          0                11           2             4    8     1      -0.1542876795E-02       4    8    1        -0.9000876489E-01      0.1094673238E+00
          0                12           2             4    8     1      -0.8000363047E-03       4    8    1        -0.4669725567E-01      0.5584897981E-01
          0                13           2             4    8     1      -0.4146341214E-03       4    8    1        -0.2421340132E-01      0.2852605827E-01
          0                14           2             4    8     1      -0.2147904717E-03       4    8    1        -0.1254866732E-01      0.1458516350E-01
          0                15           2             4    8     1      -0.1112181701E-03       4    8    1        -0.6500315915E-02      0.7464058835E-02
          0                16           1             4    8     1      -0.5756545316E-04       4    8    1        -0.3365754709E-02      0.3822857868E-02

    ------------------------------------------------
       NWT REQUIRED           16 OUTER ITERATIONS 
       AND A TOTAL OF         31 INNER ITERATIONS.
    ------------------------------------------------

 NO OUTPUT CONTROL FOR STRESS PERIOD   18   TIME STEP    9
 
 SOLVING FOR HEAD 
                                                   Max.-Head-Change                         Max.-Flux-Residual
  Residual-Control   Outer-Iter.   Inner-Iter.     Column Row Layer    Maximum-Head-Change  Column Row Layer    Maximum-Flux-Residual          L2-NORM 
          0                 1           2             4    8     1       0.5689044735E+00       4    8    1         0.3060258461E+02      0.4944555318E+02
          0                 2           2             4    6     1      -0.2244008772E+00       4    6    1        -0.1239902895E+02      0.1830742308E+02
          0                 3           2             4    8     1       0.1491114518E+00       4    8    1         0.7916414614E+01      0.1711068202E+02
          0                 4           2             4    7     1      -0.2087033584E+00       4    6    1        -0.1193941375E+02      0.2403747077E+02
          0                 5           2             5    8     1      -0.7646133180E-01       5    8    1        -0.4462530125E+01      0.8478600445E+01
          0                 6           2             5    7     1      -0.3722236687E-01       5    8    1        -0.2169760869E+01      0.4135745832E+01
          0                 7           2             5    7     1      -0.1854868153E-01       5    7    1        -0.1080201466E+01      0.2020123760E+01
          0                 8           2             5    7     1      -0.9237927049E-02       5    7    1        -0.5382663754E+00      0.9874014211E+00
          0                 9           2             5    7     1      -0.4598347119E-02       5    7    1        -0.2680674637E+00      0.4829184062E+00
          0                10           2             5    7     1      -0.2287742711E-02       5    7    1        -0.1334311558E+00      0.2363194731E+00
                                                   Max.-Head-Change                         Max.-Flux-Residual
  Residual-Control   Outer-Iter.   Inner-Iter.     Column Row Layer    Maximum-Head-Change  Column Row Layer    Maximum-Flux-Residual          L2-NORM 
          0                11           2             5    7     1      -0.1137633812E-02       5    7    1        -0.6638178885E-01      0.1157055090E+00
          0                12           2             5    7     1      -0.5654557659E-03       5    7    1        -0.3300888329E-01      0.5667888751E-01
          0                13           2             5    7     1      -0.2809350318E-03       5    7    1        -0.1640641930E-01      0.2777705572E-01
          0                14           2             5    7     1      -0.1395191857E-03       5    7    1        -0.8150948156E-02      0.1361866195E-01
          0                15           1             5    7     1      -0.6926157148E-04       5    7    1        -0.4047841030E-02      0.6679632795E-02

    ------------------------------------------------
       NWT REQUIRED           15 OUTER ITERATIONS 
       AND A TOTAL OF         29 INNER ITERATIONS.
    ------------------------------------------------

 NO OUTPUT CONTROL FOR STRESS PERIOD   18   TIME STEP   10
 
 SOLVING FOR HEAD 
                                                   Max.-Head-Change                         Max.-Flux-Residual
  Residual-Control   Outer-Iter.   Inner-Iter.     Column Row Layer    Maximum-Head-Change  Column Row Layer    Maximum-Flux-Residual          L2-NORM 
          0                 1           2             5    7     1       0.5274392429E+00       5    7    1         0.2840579851E+02      0.5219850194E+02
          0                 2           2             4    6     1      -0.2245722443E+00       4    6    1        -0.1243938148E+02      0.1842402305E+02
          0                 3           2             4    7     1       0.1425568907E+00       4    6    1         0.7887529753E+01      0.1752649727E+02
          0                 4           2             4    7     1      -0.2085960432E+00       4    6    1        -0.1193263723E+02      0.2403089973E+02
          0                 5           2             5    8     1      -0.7670455814E-01       5    8    1        -0.4481030431E+01      0.8175740684E+01
          0                 6           2             5    8     1      -0.3679675662E-01       5    8    1        -0.2150886667E+01      0.3847811069E+01
          0                 7           2             5    8     1      -0.1764119261E-01       5    8    1        -0.1031713089E+01      0.1813814859E+01
          0                 8           2             5    8     1      -0.8452675068E-02       5    8    1        -0.4945780772E+00      0.8552902295E+00
          0                 9           2             5    8     1      -0.4047833066E-02       5    8    1        -0.2369521699E+00      0.4034216513E+00
          0                10           2             5    8     1      -0.1937432046E-02       5    8    1        -0.1134620328E+00      0.1903364175E+00
                                                   Max.-Head-Change                         Max.-Flux-Residual
  Residual-Control   Outer-Iter.   Inner-Iter.     Column Row Layer    Maximum-Head-Change  Column Row Layer    Maximum-Flux-Residual          L2-NORM 
          0                11           2             5    8     1      -0.9268685447E-03       5    8    1        -0.5430222037E-01      0.8982441439E-01
          0                12           2             5    8     1      -0.4432094659E-03       5    8    1        -0.2597610017E-01      0.4240039693E-01
          0                13           2             5    8     1      -0.2118408822E-03       5    8    1        -0.1242026812E-01      0.2001898293E-01
          0                14           1             5    8     1      -0.1012116070E-03       5    8    1        -0.5936072488E-02      0.9453758527E-02
          0                15           1             5    8     1      -0.4833702451E-04       5    8    1        -0.2835883979E-02      0.4465309442E-02

    ------------------------------------------------
       NWT REQUIRED           15 OUTER ITERATIONS 
       AND A TOTAL OF         28 INNER ITERATIONS.
    ------------------------------------------------

 NO OUTPUT CONTROL FOR STRESS PERIOD   18   TIME STEP   11
 
 SOLVING FOR HEAD 
                                                   Max.-Head-Change                         Max.-Flux-Residual
  Residual-Control   Outer-Iter.   Inner-Iter.     Column Row Layer    Maximum-Head-Change  Column Row Layer    Maximum-Flux-Residual          L2-NORM 
          0                 1           2             5    7     1       0.4809180742E+00       5    7    1         0.2585923559E+02      0.4833089839E+02
          0                 2           2             4    6     1      -0.2258540296E+00       4    6    1        -0.1249265725E+02      0.1859644234E+02
          0                 3           2             4    7     1       0.1423576187E+00       4    6    1         0.7890956767E+01      0.1678090680E+02
          0                 4           2             4    7     1      -0.2088696694E+00       4    6    1        -0.1193968063E+02      0.2419494960E+02
          0                 5           2             5    8     1      -0.7644351875E-01       5    8    1        -0.4457752767E+01      0.8513734627E+01
          0                 6           2             5    8     1      -0.3608204239E-01       5    8    1        -0.2101732812E+01      0.4118647411E+01
          0                 7           2             5    7     1      -0.1743146764E-01       5    7    1        -0.1015098471E+01      0.1994836327E+01
          0                 8           2             5    7     1      -0.8565880553E-02       5    7    1        -0.4991857118E+00      0.9666423953E+00
          0                 9           2             5    7     1      -0.4206316033E-02       5    7    1        -0.2452916712E+00      0.4685952859E+00
          0                10           2             5    7     1      -0.2064184343E-02       5    7    1        -0.1204470636E+00      0.2272384838E+00
                                                   Max.-Head-Change                         Max.-Flux-Residual
  Residual-Control   Outer-Iter.   Inner-Iter.     Column Row Layer    Maximum-Head-Change  Column Row Layer    Maximum-Flux-Residual          L2-NORM 
          0                11           2             5    7     1      -0.1012358280E-02       5    7    1        -0.5910538053E-01      0.1102298278E+00
          0                12           2             5    7     1      -0.4962260418E-03       5    7    1        -0.2898662071E-01      0.5348514763E-01
          0                13           2             5    7     1      -0.2431100504E-03       5    7    1        -0.1420784561E-01      0.2595789878E-01
          0                14           2             5    7     1      -0.1190477380E-03       5    7    1        -0.6960451037E-02      0.1260071753E-01
          0                15           1             5    7     1      -0.5827070514E-04       5    7    1        -0.3408331495E-02      0.6117853635E-02

    ------------------------------------------------
       NWT REQUIRED           15 OUTER ITERATIONS 
       AND A TOTAL OF         29 INNER ITERATIONS.
    ------------------------------------------------

 NO OUTPUT CONTROL FOR STRESS PERIOD   18   TIME STEP   12
 
 SOLVING FOR HEAD 
                                                   Max.-Head-Change                         Max.-Flux-Residual
  Residual-Control   Outer-Iter.   Inner-Iter.     Column Row Layer    Maximum-Head-Change  Column Row Layer    Maximum-Flux-Residual          L2-NORM 
          0                 1           2             5    7     1       0.4306135898E+00       5    7    1         0.2311453225E+02      0.4415756328E+02
          0                 2           2             4    7     1      -0.2272144162E+00       4    6    1        -0.1253822176E+02      0.1877950757E+02
          0                 3           2             4    7     1       0.1421608670E+00       4    6    1         0.7894137435E+01      0.1607791401E+02
          0                 4           2             4    7     1      -0.2090352537E+00       4    6    1        -0.1193981261E+02      0.2448021088E+02
          0                 5           2             5    8     1      -0.8146081094E-01       5    8    1        -0.4756205804E+01      0.8800866792E+01
          0                 6           2             5    8     1      -0.4148226210E-01       5    8    1        -0.2425140212E+01      0.4319103395E+01
          0                 7           2             5    8     1      -0.2109824353E-01       5    8    1        -0.1234888550E+01      0.2124323631E+01
          0                 8           2             5    8     1      -0.1071876127E-01       5    8    1        -0.6280442152E+00      0.1046085466E+01
          0                 9           2             5    8     1      -0.5439972685E-02       5    8    1        -0.3190569633E+00      0.5157065850E+00
          0                10           2             5    8     1      -0.2758277824E-02       5    8    1        -0.1619202035E+00      0.2545092470E+00
                                                   Max.-Head-Change                         Max.-Flux-Residual
  Residual-Control   Outer-Iter.   Inner-Iter.     Column Row Layer    Maximum-Head-Change  Column Row Layer    Maximum-Flux-Residual          L2-NORM 
          0                11           2             5    8     1      -0.1397334157E-02       5    8    1        -0.8209635823E-01      0.1257320796E+00
          0                12           2             5    8     1      -0.7073139697E-03       5    8    1        -0.4158804416E-01      0.6217362207E-01
          0                13           2             5    8     1      -0.3577666731E-03       5    8    1        -0.2105055193E-01      0.3077226984E-01
          0                14           2             5    8     1      -0.1808367977E-03       5    8    1        -0.1064718474E-01      0.1524340741E-01
          0                15           1             5    8     1      -0.9134704045E-04       5    8    1        -0.5381532126E-02      0.7557009235E-02

    ------------------------------------------------
       NWT REQUIRED           15 OUTER ITERATIONS 
       AND A TOTAL OF         29 INNER ITERATIONS.
    ------------------------------------------------

 NO OUTPUT CONTROL FOR STRESS PERIOD   18   TIME STEP   13
 
 SOLVING FOR HEAD 
                                                   Max.-Head-Change                         Max.-Flux-Residual
  Residual-Control   Outer-Iter.   Inner-Iter.     Column Row Layer    Maximum-Head-Change  Column Row Layer    Maximum-Flux-Residual          L2-NORM 
          0                 1           2             5    8     1       0.4237964431E+00       5    8    1         0.2282141734E+02      0.4491160089E+02
          0                 2           2             4    7     1      -0.2286882577E+00       4    6    1        -0.1257410446E+02      0.1852135461E+02
          0                 3           2             4    7     1       0.1420455385E+00       4    6    1         0.7896643418E+01      0.1627718072E+02
          0                 4           2             4    7     1      -0.2091259890E+00       4    6    1        -0.1193991628E+02      0.2437716031E+02
          0                 5           2             5    7     1      -0.7459463211E-01       5    7    1        -0.4343793161E+01      0.8643723694E+01
          0                 6           2             5    8     1      -0.3770050674E-01       5    8    1        -0.2198688328E+01      0.4188404997E+01
          0                 7           2             5    8     1      -0.1921105750E-01       5    8    1        -0.1122376692E+01      0.2035029305E+01
          0                 8           2             5    8     1      -0.9773177335E-02       5    8    1        -0.5718931734E+00      0.9907506160E+00
          0                 9           2             5    8     1      -0.4964453682E-02       5    8    1        -0.2909199698E+00      0.4832768830E+00
          0                10           2             5    8     1      -0.2518374610E-02       5    8    1        -0.1477695746E+00      0.2361756190E+00
                                                   Max.-Head-Change                         Max.-Flux-Residual
  Residual-Control   Outer-Iter.   Inner-Iter.     Column Row Layer    Maximum-Head-Change  Column Row Layer    Maximum-Flux-Residual          L2-NORM 
          0                11           2             5    8     1      -0.1275959788E-02       5    8    1        -0.7495682542E-01      0.1156237605E+00
          0                12           2             5    8     1      -0.6457578894E-03       5    8    1        -0.3797575730E-01      0.5670145551E-01
          0                13           2             5    8     1      -0.3264836317E-03       5    8    1        -0.1921847558E-01      0.2785068265E-01
          0                14           2             5    8     1      -0.1649112503E-03       5    8    1        -0.9716087481E-02      0.1370028623E-01
          0                15           1             5    8     1      -0.8322820369E-04       5    8    1        -0.4907519033E-02      0.6748888873E-02

    ------------------------------------------------
       NWT REQUIRED           15 OUTER ITERATIONS 
       AND A TOTAL OF         29 INNER ITERATIONS.
    ------------------------------------------------

 NO OUTPUT CONTROL FOR STRESS PERIOD   18   TIME STEP   14
 
 SOLVING FOR HEAD 
                                                   Max.-Head-Change                         Max.-Flux-Residual
  Residual-Control   Outer-Iter.   Inner-Iter.     Column Row Layer    Maximum-Head-Change  Column Row Layer    Maximum-Flux-Residual          L2-NORM 
          0                 1           2             5    8     1       0.4127383946E+00       5    8    1         0.2221407810E+02      0.4369337992E+02
          0                 2           2             4    7     1      -0.2291911649E+00       4    6    1        -0.1260213806E+02      0.1857234348E+02
          0                 3           2             4    7     1       0.1421719137E+00       4    6    1         0.7898602130E+01      0.1624965088E+02
          0                 4           2             4    7     1      -0.2089986589E+00       4    6    1        -0.1193999695E+02      0.2425427033E+02
          0                 5           2             5    7     1      -0.7816222545E-01       5    7    1        -0.4557122009E+01      0.8836951049E+01
          0                 6           2             5    7     1      -0.3988503171E-01       5    7    1        -0.2327011167E+01      0.4425662967E+01
          0                 7           2             5    7     1      -0.2033018730E-01       5    7    1        -0.1187330439E+01      0.2224117694E+01
          0                 8           2             5    7     1      -0.1035270134E-01       5    7    1        -0.6051749960E+00      0.1120441171E+01
          0                 9           2             4    8     1      -0.5278074304E-02       5    7    1        -0.3081585847E+00      0.5655941885E+00
          0                10           2             4    8     1      -0.2705096636E-02       4    8    1        -0.1571304465E+00      0.2859995505E+00
                                                   Max.-Head-Change                         Max.-Flux-Residual
  Residual-Control   Outer-Iter.   Inner-Iter.     Column Row Layer    Maximum-Head-Change  Column Row Layer    Maximum-Flux-Residual          L2-NORM 
          0                11           2             4    8     1      -0.1386360732E-02       4    8    1        -0.8053024849E-01      0.1448270084E+00
          0                12           2             4    8     1      -0.7104857513E-03       4    8    1        -0.4127090063E-01      0.7342676429E-01
          0                13           2             4    8     1      -0.3640991225E-03       4    8    1        -0.2115020223E-01      0.3726426420E-01
          0                14           2             4    8     1      -0.1865814677E-03       4    8    1        -0.1083852636E-01      0.1892739278E-01
          0                15           1             4    8     1      -0.9560958658E-04       4    8    1        -0.5554059919E-02      0.9620287929E-02

    ------------------------------------------------
       NWT REQUIRED           15 OUTER ITERATIONS 
       AND A TOTAL OF         29 INNER ITERATIONS.
    ------------------------------------------------

 NO OUTPUT CONTROL FOR STRESS PERIOD   18   TIME STEP   15
 
 SOLVING FOR HEAD 
                                                   Max.-Head-Change                         Max.-Flux-Residual
  Residual-Control   Outer-Iter.   Inner-Iter.     Column Row Layer    Maximum-Head-Change  Column Row Layer    Maximum-Flux-Residual          L2-NORM 
          0                 1           2             5    7     1       0.5126721212E+00       5    7    1         0.2737757530E+02      0.5434319118E+02
          0                 2           2             4    6     1      -0.2264063210E+00       4    6    1        -0.1262439766E+02      0.1380094468E+02
          0                 3           2             5    7     1       0.1416713814E+00       4    6    1         0.7900112166E+01      0.1682804237E+02
          0                 4           2             4    6     1      -0.2060093303E+00       4    6    1        -0.1194006973E+02      0.2231668907E+02
          0                 5           2             4    7     1      -0.7801692852E-01       4    7    1        -0.4499417151E+01      0.9423229079E+01
          0                 6           2             5    8     1      -0.3778167031E-01       5    8    1        -0.2205939041E+01      0.4671107255E+01
          0                 7           2             5    8     1      -0.1930450467E-01       5    8    1        -0.1128247327E+01      0.2318809308E+01
          0                 8           2             5    8     1      -0.9852985053E-02       5    8    1        -0.5763857495E+00      0.1152285384E+01
          0                 9           2             5    8     1      -0.5023928491E-02       5    8    1        -0.2941429326E+00      0.5731465694E+00
          0                10           2             5    8     1      -0.2559253358E-02       5    8    1        -0.1499595755E+00      0.2825318988E+00
                                                   Max.-Head-Change                         Max.-Flux-Residual
  Residual-Control   Outer-Iter.   Inner-Iter.     Column Row Layer    Maximum-Head-Change  Column Row Layer    Maximum-Flux-Residual          L2-NORM 
          0                11           2             5    8     1      -0.1302562454E-02       5    8    1        -0.7638136463E-01      0.1380956983E+00
          0                12           2             5    8     1      -0.6623979346E-03       5    8    1        -0.3887035515E-01      0.6766008101E-01
          0                13           2             5    8     1      -0.3365839694E-03       5    8    1        -0.1976455685E-01      0.3322342129E-01
          0                14           2             5    8     1      -0.1708991972E-03       5    8    1        -0.1004180863E-01      0.1634695748E-01
          0                15           1             5    8     1      -0.8671136645E-04       5    8    1        -0.5098132110E-02      0.8058127666E-02

    ------------------------------------------------
       NWT REQUIRED           15 OUTER ITERATIONS 
       AND A TOTAL OF         29 INNER ITERATIONS.
    ------------------------------------------------

 NO OUTPUT CONTROL FOR STRESS PERIOD   18   TIME STEP   16
 
 SOLVING FOR HEAD 
                                                   Max.-Head-Change                         Max.-Flux-Residual
  Residual-Control   Outer-Iter.   Inner-Iter.     Column Row Layer    Maximum-Head-Change  Column Row Layer    Maximum-Flux-Residual          L2-NORM 
          0                 1           2             4    7     1       0.5911719294E+00       4    7    1         0.3124342378E+02      0.6107863225E+02
          0                 2           2             4    6     1      -0.8329627924E-01       4    6    1        -0.4712999410E+01      0.5840616290E+01
          0                 3           2             4    7     1       0.1514241686E+00       4    7    1         0.7960571914E+01      0.1699630682E+02
          0                 4           2             4    6     1      -0.1583163903E+00       4    6    1        -0.9135403072E+01      0.2034365472E+02
          0                 5           2             4    6     1      -0.8184180253E-01       4    6    1        -0.4728751369E+01      0.1018445071E+02
          0                 6           2             4    6     1      -0.4225011122E-01       4    6    1        -0.2444044456E+01      0.5104017295E+01
          0                 7           2             4    6     1      -0.2178403468E-01       4    6    1        -0.1261487864E+01      0.2560406082E+01
          0                 8           2             4    6     1      -0.1121901318E-01       4    6    1        -0.6503113514E+00      0.1285549610E+01
          0                 9           2             4    6     1      -0.5771909738E-02       4    6    1        -0.3348661054E+00      0.6459750871E+00
          0                10           2             4    6     1      -0.2966681537E-02       4    6    1        -0.1722561060E+00      0.3248299117E+00
                                                   Max.-Head-Change                         Max.-Flux-Residual
  Residual-Control   Outer-Iter.   Inner-Iter.     Column Row Layer    Maximum-Head-Change  Column Row Layer    Maximum-Flux-Residual          L2-NORM 
          0                11           2             4    6     1      -0.1523501221E-02       4    6    1        -0.8852563704E-01      0.1634476341E+00
          0                12           2             4    6     1      -0.7817458955E-03       4    6    1        -0.4545566002E-01      0.8229156437E-01
          0                13           2             4    6     1      -0.4008360018E-03       4    6    1        -0.2332176308E-01      0.4145340759E-01
          0                14           2             4    6     1      -0.2053860014E-03       4    6    1        -0.1195683723E-01      0.2089151594E-01
          0                15           2             4    6     1      -0.1051720400E-03       4    6    1        -0.6126002447E-02      0.1053327121E-01
          0                16           1             4    6     1      -0.5382396496E-04       4    6    1        -0.3136649449E-02      0.5312770355E-02

    ------------------------------------------------
       NWT REQUIRED           16 OUTER ITERATIONS 
       AND A TOTAL OF         31 INNER ITERATIONS.
    ------------------------------------------------

 NO OUTPUT CONTROL FOR STRESS PERIOD   18   TIME STEP   17
 
 SOLVING FOR HEAD 
                                                   Max.-Head-Change                         Max.-Flux-Residual
  Residual-Control   Outer-Iter.   Inner-Iter.     Column Row Layer    Maximum-Head-Change  Column Row Layer    Maximum-Flux-Residual          L2-NORM 
          0                 1           2             4    6     1       0.6252496609E+00       4    6    1         0.3331890400E+02      0.6769551451E+02
          0                 2           2             4    6     1       0.7682069631E-01       4    6    1         0.4127566293E+01      0.6144451890E+01
          0                 3           2             4    6     1       0.1684271277E+00       4    6    1         0.8947313894E+01      0.1888473966E+02
          0                 4           2             4    8     1      -0.1496290367E+00       5    8    1        -0.8424266845E+01      0.1947133287E+02
          0                 5           2             5    8     1      -0.7405860427E-01       5    8    1        -0.4319729055E+01      0.9644870278E+01
          0                 6           2             5    8     1      -0.3788056859E-01       5    8    1        -0.2211910070E+01      0.4780769050E+01
          0                 7           2             5    8     1      -0.1935320114E-01       5    8    1        -0.1131187720E+01      0.2371253003E+01
          0                 8           2             5    8     1      -0.9877020297E-02       5    8    1        -0.5778335221E+00      0.1176852351E+01
          0                 9           2             5    8     1      -0.5035850607E-02       5    8    1        -0.2948577499E+00      0.5844072342E+00
          0                10           2             5    8     1      -0.2565231255E-02       5    8    1        -0.1503143709E+00      0.2903655390E+00
                                                   Max.-Head-Change                         Max.-Flux-Residual
  Residual-Control   Outer-Iter.   Inner-Iter.     Column Row Layer    Maximum-Head-Change  Column Row Layer    Maximum-Flux-Residual          L2-NORM 
          0                11           2             5    8     1      -0.1305619559E-02       5    8    1        -0.7655951415E-01      0.1443436030E+00
          0                12           2             5    8     1      -0.6640027836E-03       5    8    1        -0.3896168971E-01      0.7178947594E-01
          0                13           2             5    8     1      -0.3374507329E-03       5    8    1        -0.1981265532E-01      0.3572097080E-01
          0                14           2             5    8     1      -0.1713799016E-03       5    8    1        -0.1006787142E-01      0.1778173118E-01
          0                15           1             5    8     1      -0.8698377251E-04       5    8    1        -0.5112628742E-02      0.8855290873E-02

    ------------------------------------------------
       NWT REQUIRED           15 OUTER ITERATIONS 
       AND A TOTAL OF         29 INNER ITERATIONS.
    ------------------------------------------------

 NO OUTPUT CONTROL FOR STRESS PERIOD   18   TIME STEP   18
 
 SOLVING FOR HEAD 
                                                   Max.-Head-Change                         Max.-Flux-Residual
  Residual-Control   Outer-Iter.   Inner-Iter.     Column Row Layer    Maximum-Head-Change  Column Row Layer    Maximum-Flux-Residual          L2-NORM 
          0                 1           2             4    6     1       0.6064798676E+00       4    6    1         0.3229614553E+02      0.6653730015E+02
          0                 2           2             4    6     1       0.6807561394E-01       4    6    1         0.3657179629E+01      0.5660895735E+01
          0                 3           2             4    7     1       0.1651621566E+00       4    6    1         0.8727573934E+01      0.1864213050E+02
          0                 4           2             4    8     1      -0.1502340047E+00       5    8    1        -0.8436738576E+01      0.1957737743E+02
          0                 5           2             5    8     1      -0.7418132929E-01       5    8    1        -0.4326625436E+01      0.9697037636E+01
          0                 6           2             5    8     1      -0.3794646456E-01       5    8    1        -0.2215625802E+01      0.4806407570E+01
          0                 7           2             5    8     1      -0.1938836299E-01       5    8    1        -0.1133181207E+01      0.2383857762E+01
          0                 8           2             5    8     1      -0.9895683122E-02       5    8    1        -0.5788960852E+00      0.1183050156E+01
          0                 9           2             5    8     1      -0.5045711096E-02       5    8    1        -0.2954212282E+00      0.5874553964E+00
          0                10           2             5    8     1      -0.2570420389E-02       5    8    1        -0.1506118531E+00      0.2918650491E+00
                                                   Max.-Head-Change                         Max.-Flux-Residual
  Residual-Control   Outer-Iter.   Inner-Iter.     Column Row Layer    Maximum-Head-Change  Column Row Layer    Maximum-Flux-Residual          L2-NORM 
          0                11           2             5    8     1      -0.1308340876E-02       5    8    1        -0.7671595890E-01      0.1450814864E+00
          0                12           2             5    8     1      -0.6654255292E-03       5    8    1        -0.3904368376E-01      0.7215269385E-01
          0                13           2             5    8     1      -0.3381925322E-03       5    8    1        -0.1985549986E-01      0.3589982566E-01
          0                14           2             5    8     1      -0.1717657178E-03       5    8    1        -0.1009019908E-01      0.1786983598E-01
          0                15           1             5    8     1      -0.8718399643E-04       5    8    1        -0.5124236440E-02      0.8898709280E-02

    ------------------------------------------------
       NWT REQUIRED           15 OUTER ITERATIONS 
       AND A TOTAL OF         29 INNER ITERATIONS.
    ------------------------------------------------

 NO OUTPUT CONTROL FOR STRESS PERIOD   18   TIME STEP   19
 
 SOLVING FOR HEAD 
                                                   Max.-Head-Change                         Max.-Flux-Residual
  Residual-Control   Outer-Iter.   Inner-Iter.     Column Row Layer    Maximum-Head-Change  Column Row Layer    Maximum-Flux-Residual          L2-NORM 
          0                 1           2             4    6     1       0.5892760207E+00       4    6    1         0.3135955604E+02      0.6545210756E+02
          0                 2           2             4    7     1       0.6065425611E-01       4    7    1         0.3246407935E+01      0.5216645187E+01
          0                 3           2             4    7     1       0.1629262391E+00       4    7    1         0.8542382080E+01      0.1836500259E+02
          0                 4           2             4    8     1      -0.1577804153E+00       4    8    1        -0.8581036333E+01      0.1976223173E+02
          0                 5           2             5    8     1      -0.7432277988E-01       5    8    1        -0.4337681538E+01      0.9719414301E+01
          0                 6           2             5    8     1      -0.3794766054E-01       5    8    1        -0.2219590867E+01      0.4800850901E+01
          0                 7           2             5    8     1      -0.1934969533E-01       5    8    1        -0.1132911977E+01      0.2401069564E+01
          0                 8           2             5    8     1      -0.9857745656E-02       5    8    1        -0.5775856256E+00      0.1203919766E+01
          0                 9           2             5    8     1      -0.5018104991E-02       5    8    1        -0.2942165648E+00      0.6039318743E+00
          0                10           2             5    8     1      -0.2552639722E-02       5    8    1        -0.1497546885E+00      0.3030778708E+00
                                                   Max.-Head-Change                         Max.-Flux-Residual
  Residual-Control   Outer-Iter.   Inner-Iter.     Column Row Layer    Maximum-Head-Change  Column Row Layer    Maximum-Flux-Residual          L2-NORM 
          0                11           2             5    8     1      -0.1297635838E-02       5    8    1        -0.7617015519E-01      0.1521518274E+00
          0                12           2             5    8     1      -0.6592541132E-03       5    8    1        -0.3871737120E-01      0.7640817349E-01
          0                13           2             5    8     1      -0.3347421402E-03       5    8    1        -0.1966827846E-01      0.3838196027E-01
          0                14           2             5    8     1      -0.1698807574E-03       5    8    1        -0.9985891198E-02      0.1928527676E-01
          0                15           1             5    8     1      -0.8617298778E-04       5    8    1        -0.5067407138E-02      0.9692240817E-02

    ------------------------------------------------
       NWT REQUIRED           15 OUTER ITERATIONS 
       AND A TOTAL OF         29 INNER ITERATIONS.
    ------------------------------------------------

 NO OUTPUT CONTROL FOR STRESS PERIOD   18   TIME STEP   20
 
 SOLVING FOR HEAD 
                                                   Max.-Head-Change                         Max.-Flux-Residual
  Residual-Control   Outer-Iter.   Inner-Iter.     Column Row Layer    Maximum-Head-Change  Column Row Layer    Maximum-Flux-Residual          L2-NORM 
          0                 1           2             4    7     1       0.5792215345E+00       4    6    1         0.3050032827E+02      0.6443355863E+02
          0                 2           2             4    7     1       0.5605627378E-01       4    7    1         0.3015367765E+01      0.4906975216E+01
          0                 3           2             4    7     1       0.1606199399E+00       4    7    1         0.8425514298E+01      0.1801553676E+02
          0                 4           2             5    7     1      -0.1507069196E+00       4    8    1        -0.8489447105E+01      0.1981685913E+02
          0                 5           2             5    8     1      -0.7446493532E-01       5    8    1        -0.4341892996E+01      0.9868116595E+01
          0                 6           2             5    8     1      -0.3802620508E-01       5    8    1        -0.2220490044E+01      0.4911496243E+01
          0                 7           2             5    8     1      -0.1939080985E-01       5    8    1        -0.1133782774E+01      0.2447524939E+01
          0                 8           2             5    8     1      -0.9875448478E-02       5    8    1        -0.5780923691E+00      0.1220985165E+01
          0                 9           2             5    8     1      -0.5023694079E-02       5    8    1        -0.2943855919E+00      0.6096870954E+00
          0                10           2             5    8     1      -0.2552967799E-02       5    8    1        -0.1497424128E+00      0.3046960766E+00
                                                   Max.-Head-Change                         Max.-Flux-Residual
  Residual-Control   Outer-Iter.   Inner-Iter.     Column Row Layer    Maximum-Head-Change  Column Row Layer    Maximum-Flux-Residual          L2-NORM 
          0                11           2             5    8     1      -0.1296186355E-02       5    8    1        -0.7609076261E-01      0.1523862566E+00
          0                12           2             5    8     1      -0.6575494380E-03       5    8    1        -0.3862972933E-01      0.7626144353E-01
          0                13           2             5    8     1      -0.3333209531E-03       5    8    1        -0.1959533045E-01      0.3818655899E-01
          0                14           2             5    8     1      -0.1688497961E-03       5    8    1        -0.9932505731E-02      0.1913077513E-01
          0                15           1             5    6     1      -0.8560633922E-04       5    8    1        -0.5031188750E-02      0.9588378023E-02

    ------------------------------------------------
       NWT REQUIRED           15 OUTER ITERATIONS 
       AND A TOTAL OF         29 INNER ITERATIONS.
    ------------------------------------------------

 NO OUTPUT CONTROL FOR STRESS PERIOD   18   TIME STEP   21
 
 SOLVING FOR HEAD 
                                                   Max.-Head-Change                         Max.-Flux-Residual
  Residual-Control   Outer-Iter.   Inner-Iter.     Column Row Layer    Maximum-Head-Change  Column Row Layer    Maximum-Flux-Residual          L2-NORM 
          0                 1           2             4    7     1       0.5700133247E+00       4    7    1         0.2991221227E+02      0.6348353738E+02
          0                 2           2             4    7     1       0.5165961643E-01       4    7    1         0.2782847039E+01      0.4431755175E+01
          0                 3           2             4    7     1       0.1584859569E+00       4    7    1         0.8314530702E+01      0.1777170080E+02
          0                 4           2             5    7     1      -0.1512456756E+00       5    8    1        -0.8487401588E+01      0.1996086226E+02
          0                 5           2             5    8     1      -0.7457403407E-01       5    8    1        -0.4345433508E+01      0.9926902749E+01
          0                 6           2             4    8     1      -0.3847900104E-01       5    8    1        -0.2223764002E+01      0.4960082540E+01
          0                 7           2             4    8     1      -0.1995522320E-01       4    8    1        -0.1147365787E+01      0.2487523740E+01
          0                 8           2             4    8     1      -0.1034148828E-01       4    8    1        -0.5949739625E+00      0.1251113943E+01
          0                 9           2             4    8     1      -0.5355702648E-02       4    8    1        -0.3083109138E+00      0.6306725176E+00
          0                10           2             4    8     1      -0.2771857951E-02       4    8    1        -0.1596570239E+00      0.3187523807E+00
                                                   Max.-Head-Change                         Max.-Flux-Residual
  Residual-Control   Outer-Iter.   Inner-Iter.     Column Row Layer    Maximum-Head-Change  Column Row Layer    Maximum-Flux-Residual          L2-NORM 
          0                11           2             4    8     1      -0.1433715473E-02       4    8    1        -0.8262464482E-01      0.1618186280E+00
          0                12           2             4    8     1      -0.7411539181E-03       4    8    1        -0.4273368186E-01      0.8218450864E-01
          0                13           2             4    8     1      -0.3829323690E-03       4    8    1        -0.2208950642E-01      0.4175622991E-01
          0                14           2             4    8     1      -0.1977505424E-03       4    8    1        -0.1141225259E-01      0.2122304024E-01
          0                15           2             4    8     1      -0.1020723054E-03       4    8    1        -0.5893048148E-02      0.1079035041E-01
          0                16           1             4    8     1      -0.5266286996E-04       4    8    1        -0.3041616480E-02      0.5487734831E-02

    ------------------------------------------------
       NWT REQUIRED           16 OUTER ITERATIONS 
       AND A TOTAL OF         31 INNER ITERATIONS.
    ------------------------------------------------

 NO OUTPUT CONTROL FOR STRESS PERIOD   18   TIME STEP   22
 
 SOLVING FOR HEAD 
                                                   Max.-Head-Change                         Max.-Flux-Residual
  Residual-Control   Outer-Iter.   Inner-Iter.     Column Row Layer    Maximum-Head-Change  Column Row Layer    Maximum-Flux-Residual          L2-NORM 
          0                 1           2             4    7     1       0.5610092322E+00       4    7    1         0.2943798692E+02      0.6259047943E+02
          0                 2           2             4    7     1       0.4721619126E-01       4    7    1         0.2555557779E+01      0.3726105350E+01
          0                 3           2             4    7     1       0.1563125113E+00       4    7    1         0.8201479722E+01      0.1753164141E+02
          0                 4           2             5    7     1      -0.1529053389E+00       5    8    1        -0.8483158845E+01      0.2001213268E+02
          0                 5           2             4    8     1      -0.7478004988E-01       5    8    1        -0.4353954297E+01      0.9979560924E+01
          0                 6           2             5    8     1      -0.3819733568E-01       5    8    1        -0.2229949128E+01      0.4972805865E+01
          0                 7           2             5    8     1      -0.1951919266E-01       5    8    1        -0.1140651137E+01      0.2459335484E+01
          0                 8           2             5    8     1      -0.9963990544E-02       5    8    1        -0.5827920225E+00      0.1220297003E+01
          0                 9           2             5    8     1      -0.5081453000E-02       5    8    1        -0.2974558551E+00      0.6070526007E+00
          0                10           2             5    8     1      -0.2589174355E-02       5    8    1        -0.1516768822E+00      0.3025862529E+00
                                                   Max.-Head-Change                         Max.-Flux-Residual
  Residual-Control   Outer-Iter.   Inner-Iter.     Column Row Layer    Maximum-Head-Change  Column Row Layer    Maximum-Flux-Residual          L2-NORM 
          0                11           2             5    8     1      -0.1318211100E-02       5    8    1        -0.7727504348E-01      0.1510565655E+00
          0                12           2             5    8     1      -0.6706360528E-03       5    8    1        -0.3933807757E-01      0.7550024588E-01
          0                13           2             5    8     1      -0.3409510606E-03       5    8    1        -0.2001099023E-01      0.3777129242E-01
          0                14           2             5    8     1      -0.1732298568E-03       5    8    1        -0.1017255850E-01      0.1891009947E-01
          0                15           1             5    8     1      -0.8796280377E-04       5    8    1        -0.5167970285E-02      0.9472811044E-02

    ------------------------------------------------
       NWT REQUIRED           15 OUTER ITERATIONS 
       AND A TOTAL OF         29 INNER ITERATIONS.
    ------------------------------------------------

 NO OUTPUT CONTROL FOR STRESS PERIOD   18   TIME STEP   23
 
 SOLVING FOR HEAD 
                                                   Max.-Head-Change                         Max.-Flux-Residual
  Residual-Control   Outer-Iter.   Inner-Iter.     Column Row Layer    Maximum-Head-Change  Column Row Layer    Maximum-Flux-Residual          L2-NORM 
          0                 1           2             4    7     1       0.5520642678E+00       4    7    1         0.2896540592E+02      0.6176128746E+02
          0                 2           2             4    7     1       0.4306953597E-01       4    7    1         0.2329910471E+01      0.3892437111E+01
          0                 3           2             4    7     1       0.1544081025E+00       4    7    1         0.8097779824E+01      0.1747986347E+02
          0                 4           2             5    7     1      -0.1472278309E+00       5    8    1        -0.8512016036E+01      0.1998646278E+02
          0                 5           2             5    8     1      -0.7480453506E-01       5    8    1        -0.4355697029E+01      0.1002897273E+02
          0                 6           2             5    8     1      -0.3822338074E-01       5    8    1        -0.2227084139E+01      0.5040922706E+01
          0                 7           2             4    8     1      -0.1974601478E-01       5    8    1        -0.1137944667E+01      0.2537495871E+01
          0                 8           2             4    8     1      -0.1023677403E-01       4    8    1        -0.5887483887E+00      0.1278754952E+01
          0                 9           2             4    8     1      -0.5303122753E-02       4    8    1        -0.3051945583E+00      0.6451230086E+00
          0                10           2             4    8     1      -0.2745372859E-02       4    8    1        -0.1580921987E+00      0.3257807119E+00
                                                   Max.-Head-Change                         Max.-Flux-Residual
  Residual-Control   Outer-Iter.   Inner-Iter.     Column Row Layer    Maximum-Head-Change  Column Row Layer    Maximum-Flux-Residual          L2-NORM 
          0                11           2             4    8     1      -0.1420324171E-02       4    8    1        -0.8183643105E-01      0.1646594000E+00
          0                12           2             4    8     1      -0.7343529816E-03       4    8    1        -0.4233512314E-01      0.8328802824E-01
          0                13           2             4    8     1      -0.3794613834E-03       4    8    1        -0.2188706665E-01      0.4215763609E-01
          0                14           2             4    8     1      -0.1959697665E-03       4    8    1        -0.1130891409E-01      0.2135184834E-01
          0                15           1             4    8     1      -0.1011537465E-03       4    8    1        -0.5840018458E-02      0.1082013350E-01
          0                16           1             4    8     1      -0.5218657278E-04       4    8    1        -0.3014257291E-02      0.5485848228E-02

    ------------------------------------------------
       NWT REQUIRED           16 OUTER ITERATIONS 
       AND A TOTAL OF         30 INNER ITERATIONS.
    ------------------------------------------------

 NO OUTPUT CONTROL FOR STRESS PERIOD   18   TIME STEP   24
 
 SOLVING FOR HEAD 
                                                   Max.-Head-Change                         Max.-Flux-Residual
  Residual-Control   Outer-Iter.   Inner-Iter.     Column Row Layer    Maximum-Head-Change  Column Row Layer    Maximum-Flux-Residual          L2-NORM 
          0                 1           2             4    7     1       0.5437774785E+00       4    7    1         0.2852882172E+02      0.6096142563E+02
          0                 2           2             5    8     1      -0.3140261577E-01       5    8    1        -0.1758155095E+01      0.3644355952E+01
          0                 3           2             4    6     1       0.1460203512E+00       4    6    1         0.7748782171E+01      0.1706247634E+02
          0                 4           2             4    7     1      -0.1547425257E+00       5    8    1        -0.8526507065E+01      0.2024643140E+02
          0                 5           2             5    8     1      -0.7497464086E-01       5    8    1        -0.4363004686E+01      0.1008449850E+02
          0                 6           2             5    8     1      -0.3832896969E-01       5    8    1        -0.2232181069E+01      0.5004218208E+01
          0                 7           2             4    8     1      -0.1976742090E-01       5    8    1        -0.1141101458E+01      0.2492607870E+01
          0                 8           2             4    8     1      -0.1021962422E-01       4    8    1        -0.5892263501E+00      0.1245505622E+01
          0                 9           2             4    8     1      -0.5277298994E-02       4    8    1        -0.3045776333E+00      0.6240020427E+00
          0                10           2             4    8     1      -0.2722387231E-02       4    8    1        -0.1572588100E+00      0.3133169565E+00
                                                   Max.-Head-Change                         Max.-Flux-Residual
  Residual-Control   Outer-Iter.   Inner-Iter.     Column Row Layer    Maximum-Head-Change  Column Row Layer    Maximum-Flux-Residual          L2-NORM 
          0                11           2             4    8     1      -0.1403160521E-02       4    8    1        -0.8111497868E-01      0.1576084130E+00
          0                12           2             4    8     1      -0.7226572971E-03       4    8    1        -0.4180351160E-01      0.7940351218E-01
          0                13           2             4    8     1      -0.3719337261E-03       4    8    1        -0.2152768681E-01      0.4005486672E-01
          0                14           2             4    8     1      -0.1913114904E-03       4    8    1        -0.1107884674E-01      0.2022721584E-01
          0                15           1             4    8     1      -0.9835301848E-04       4    8    1        -0.5698201635E-02      0.1022370660E-01

    ------------------------------------------------
       NWT REQUIRED           15 OUTER ITERATIONS 
       AND A TOTAL OF         29 INNER ITERATIONS.
    ------------------------------------------------

 NO OUTPUT CONTROL FOR STRESS PERIOD   18   TIME STEP   25
 
 SOLVING FOR HEAD 
                                                   Max.-Head-Change                         Max.-Flux-Residual
  Residual-Control   Outer-Iter.   Inner-Iter.     Column Row Layer    Maximum-Head-Change  Column Row Layer    Maximum-Flux-Residual          L2-NORM 
          0                 1           2             4    7     1       0.5361316864E+00       4    7    1         0.2812586676E+02      0.6021452270E+02
          0                 2           2             5    8     1      -0.3229770129E-01       5    8    1        -0.1814949821E+01      0.3283608412E+01
          0                 3           2             4    6     1       0.1435607337E+00       4    6    1         0.7617277661E+01      0.1696386190E+02
          0                 4           2             4    7     1      -0.1493258207E+00       5    8    1        -0.8536787056E+01      0.2009487831E+02
          0                 5           2             5    8     1      -0.7506235399E-01       5    8    1        -0.4366775043E+01      0.1023270434E+02
          0                 6           2             5    7     1      -0.3880421688E-01       5    8    1        -0.2234809212E+01      0.5215256748E+01
          0                 7           2             5    7     1      -0.2014388322E-01       5    7    1        -0.1157526486E+01      0.2660111541E+01
          0                 8           2             5    7     1      -0.1044666436E-01       5    7    1        -0.6008264502E+00      0.1357768019E+01
          0                 9           2             5    7     1      -0.5412762492E-02       5    7    1        -0.3115592719E+00      0.6934561966E+00
          0                10           2             5    7     1      -0.2802206538E-02       5    7    1        -0.1614143698E+00      0.3543640739E+00
                                                   Max.-Head-Change                         Max.-Flux-Residual
  Residual-Control   Outer-Iter.   Inner-Iter.     Column Row Layer    Maximum-Head-Change  Column Row Layer    Maximum-Flux-Residual          L2-NORM 
          0                11           2             5    7     1      -0.1449608861E-02       5    7    1        -0.8355765291E-01      0.1811715910E+00
          0                12           2             5    7     1      -0.7493726746E-03       5    7    1        -0.4322173550E-01      0.9266499746E-01
          0                13           2             5    7     1      -0.3871376976E-03       5    7    1        -0.2234172327E-01      0.4741378772E-01
          0                14           2             5    7     1      -0.1998829214E-03       5    7    1        -0.1154127244E-01      0.2426819247E-01
          0                15           2             5    7     1      -0.1031450906E-03       5    7    1        -0.5958474933E-02      0.1242501146E-01
          0                16           1             5    7     1      -0.5319893984E-04       5    7    1        -0.3074544674E-02      0.6363081489E-02

    ------------------------------------------------
       NWT REQUIRED           16 OUTER ITERATIONS 
       AND A TOTAL OF         31 INNER ITERATIONS.
    ------------------------------------------------

 NO OUTPUT CONTROL FOR STRESS PERIOD   18   TIME STEP   26
 
 SOLVING FOR HEAD 
                                                   Max.-Head-Change                         Max.-Flux-Residual
  Residual-Control   Outer-Iter.   Inner-Iter.     Column Row Layer    Maximum-Head-Change  Column Row Layer    Maximum-Flux-Residual          L2-NORM 
          0                 1           2             4    7     1       0.5296652693E+00       4    7    1         0.2778721233E+02      0.5951255226E+02
          0                 2           2             5    8     1      -0.3299238435E-01       5    8    1        -0.1859164365E+01      0.3500284133E+01
          0                 3           2             4    7     1       0.1494149298E+00       4    7    1         0.7831549969E+01      0.1710205940E+02
          0                 4           2             4    6     1      -0.1480359007E+00       5    8    1        -0.8611099602E+01      0.2006193467E+02
          0                 5           2             5    8     1      -0.7453942962E-01       5    8    1        -0.4336108215E+01      0.1018716114E+02
          0                 6           2             4    8     1      -0.3845037758E-01       5    8    1        -0.2219243319E+01      0.5191900432E+01
          0                 7           2             4    8     1      -0.1994867125E-01       4    8    1        -0.1146549584E+01      0.2648126667E+01
          0                 8           2             4    8     1      -0.1034300368E-01       4    8    1        -0.5947993243E+00      0.1351615362E+01
          0                 9           2             4    8     1      -0.5359465767E-02       4    8    1        -0.3083682649E+00      0.6902963920E+00
          0                10           2             4    8     1      -0.2775613788E-02       4    8    1        -0.1597765431E+00      0.3527407810E+00
                                                   Max.-Head-Change                         Max.-Flux-Residual
  Residual-Control   Outer-Iter.   Inner-Iter.     Column Row Layer    Maximum-Head-Change  Column Row Layer    Maximum-Flux-Residual          L2-NORM 
          0                11           2             4    8     1      -0.1436739211E-02       4    8    1        -0.8274102476E-01      0.1803374362E+00
          0                12           2             4    8     1      -0.7433531120E-03       4    8    1        -0.4282642176E-01      0.9223626500E-01
          0                13           2             4    8     1      -0.3844378071E-03       4    8    1        -0.2215656794E-01      0.4719339568E-01
          0                14           2             4    8     1      -0.1987397524E-03       4    8    1        -0.1145798520E-01      0.2415488524E-01
          0                15           2             4    8     1      -0.1027031835E-03       4    8    1        -0.5923017185E-02      0.1236675332E-01
          0                16           1             4    8     1      -0.5305604322E-04       4    8    1        -0.3060690181E-02      0.6333125771E-02

    ------------------------------------------------
       NWT REQUIRED           16 OUTER ITERATIONS 
       AND A TOTAL OF         31 INNER ITERATIONS.
    ------------------------------------------------

 NO OUTPUT CONTROL FOR STRESS PERIOD   18   TIME STEP   27
 
 SOLVING FOR HEAD 
                                                   Max.-Head-Change                         Max.-Flux-Residual
  Residual-Control   Outer-Iter.   Inner-Iter.     Column Row Layer    Maximum-Head-Change  Column Row Layer    Maximum-Flux-Residual          L2-NORM 
          0                 1           2             4    7     1       0.5220914248E+00       4    7    1         0.2738741421E+02      0.5883316457E+02
          0                 2           2             5    8     1      -0.3864308153E-01       5    8    1        -0.2176166812E+01      0.3581050735E+01
          0                 3           2             4    7     1       0.1476759263E+00       4    7    1         0.7740047932E+01      0.1693223937E+02
          0                 4           2             5    8     1      -0.1517355632E+00       5    8    1        -0.8840914526E+01      0.2023131581E+02
          0                 5           2             4    8     1      -0.7427218828E-01       5    6    1        -0.4276658835E+01      0.1014127268E+02
          0                 6           2             4    8     1      -0.3851611692E-01       4    8    1        -0.2214895145E+01      0.5137777855E+01
          0                 7           2             4    8     1      -0.1996090710E-01       4    8    1        -0.1148485085E+01      0.2619984661E+01
          0                 8           2             4    8     1      -0.1033875540E-01       4    8    1        -0.5951523271E+00      0.1336983634E+01
          0                 9           2             4    8     1      -0.5352134231E-02       4    8    1        -0.3082362136E+00      0.6826904386E+00
          0                10           2             4    8     1      -0.2769330060E-02       4    8    1        -0.1595555194E+00      0.3487880657E+00
                                                   Max.-Head-Change                         Max.-Flux-Residual
  Residual-Control   Outer-Iter.   Inner-Iter.     Column Row Layer    Maximum-Head-Change  Column Row Layer    Maximum-Flux-Residual          L2-NORM 
          0                11           2             4    8     1      -0.1432280201E-02       4    8    1        -0.8255258963E-01      0.1782839315E+00
          0                12           2             4    8     1      -0.7404604390E-03       4    8    1        -0.4269299952E-01      0.9116982750E-01
          0                13           2             4    8     1      -0.3826573378E-03       4    8    1        -0.2207011777E-01      0.4663978886E-01
          0                14           2             4    8     1      -0.1976810523E-03       4    8    1        -0.1140481472E-01      0.2386761865E-01
          0                15           2             4    8     1      -0.1020888390E-03       4    8    1        -0.5891417621E-02      0.1221775504E-01
          0                16           1             4    8     1      -0.5270596180E-04       4    8    1        -0.3042360583E-02      0.6255877714E-02

    ------------------------------------------------
       NWT REQUIRED           16 OUTER ITERATIONS 
       AND A TOTAL OF         31 INNER ITERATIONS.
    ------------------------------------------------

 NO OUTPUT CONTROL FOR STRESS PERIOD   18   TIME STEP   28
 
 SOLVING FOR HEAD 
                                                   Max.-Head-Change                         Max.-Flux-Residual
  Residual-Control   Outer-Iter.   Inner-Iter.     Column Row Layer    Maximum-Head-Change  Column Row Layer    Maximum-Flux-Residual          L2-NORM 
          0                 1           2             4    7     1       0.5147682812E+00       4    7    1         0.2700055611E+02      0.5818883544E+02
          0                 2           2             5    8     1      -0.4633702832E-01       5    8    1        -0.2609182515E+01      0.3801712465E+01
          0                 3           2             4    7     1       0.1459952936E+00       4    7    1         0.7651639519E+01      0.1672179932E+02
          0                 4           2             5    8     1      -0.1531207960E+00       5    8    1        -0.8923097926E+01      0.2033508162E+02
          0                 5           2             4    8     1      -0.7452858904E-01       5    6    1        -0.4289221369E+01      0.1019158191E+02
          0                 6           2             4    8     1      -0.3862568064E-01       4    8    1        -0.2222553228E+01      0.5121851918E+01
          0                 7           2             4    8     1      -0.1998459759E-01       4    8    1        -0.1151741052E+01      0.2579984495E+01
          0                 8           2             4    8     1      -0.1032459179E-01       4    8    1        -0.5958387405E+00      0.1302120310E+01
          0                 9           2             4    8     1      -0.5327055250E-02       4    8    1        -0.3077975628E+00      0.6582481418E+00
          0                10           2             4    8     1      -0.2745400352E-02       4    8    1        -0.1587969244E+00      0.3332064651E+00
                                                   Max.-Head-Change                         Max.-Flux-Residual
  Residual-Control   Outer-Iter.   Inner-Iter.     Column Row Layer    Maximum-Head-Change  Column Row Layer    Maximum-Flux-Residual          L2-NORM 
          0                11           2             4    8     1      -0.1413469009E-02       5    7    1        -0.8183999761E-01      0.1688579561E+00
          0                12           2             4    8     1      -0.7270747940E-03       5    7    1        -0.4212880746E-01      0.8565038220E-01
          0                13           2             4    8     1      -0.3737037883E-03       4    8    1        -0.2166899153E-01      0.4347766354E-01
          0                14           2             4    8     1      -0.1919416883E-03       4    8    1        -0.1113678405E-01      0.2208379511E-01
          0                15           1             4    8     1      -0.9852287144E-04       4    8    1        -0.5719737095E-02      0.1122285950E-01

    ------------------------------------------------
       NWT REQUIRED           15 OUTER ITERATIONS 
       AND A TOTAL OF         29 INNER ITERATIONS.
    ------------------------------------------------

 NO OUTPUT CONTROL FOR STRESS PERIOD   18   TIME STEP   29
 
 SOLVING FOR HEAD 
                                                   Max.-Head-Change                         Max.-Flux-Residual
  Residual-Control   Outer-Iter.   Inner-Iter.     Column Row Layer    Maximum-Head-Change  Column Row Layer    Maximum-Flux-Residual          L2-NORM 
          0                 1           2             4    7     1       0.5076932471E+00       4    7    1         0.2662663226E+02      0.5757880371E+02
          0                 2           2             5    8     1      -0.5193240830E-01       5    8    1        -0.2923294370E+01      0.3999983297E+01
          0                 3           2             4    7     1       0.1443745825E+00       4    7    1         0.7566306442E+01      0.1653843572E+02
          0                 4           2             5    8     1      -0.1541354172E+00       5    8    1        -0.8983066801E+01      0.2052491457E+02
          0                 5           2             4    8     1      -0.7476650280E-01       4    8    1        -0.4294106398E+01      0.1018652651E+02
          0                 6           2             4    8     1      -0.3875097589E-01       4    8    1        -0.2229658510E+01      0.5117823460E+01
          0                 7           2             4    8     1      -0.2005027517E-01       4    8    1        -0.1155481870E+01      0.2577308367E+01
          0                 8           2             4    8     1      -0.1035888031E-01       4    8    1        -0.5977990929E+00      0.1300490144E+01
          0                 9           2             4    8     1      -0.5344893721E-02       4    8    1        -0.3088207690E+00      0.6573039290E+00
          0                10           2             4    8     1      -0.2754652263E-02       4    8    1        -0.1593291305E+00      0.3326771137E+00
                                                   Max.-Head-Change                         Max.-Flux-Residual
  Residual-Control   Outer-Iter.   Inner-Iter.     Column Row Layer    Maximum-Head-Change  Column Row Layer    Maximum-Flux-Residual          L2-NORM 
          0                11           2             4    8     1      -0.1418254490E-02       4    8    1        -0.8210855946E-01      0.1685678063E+00
          0                12           2             4    8     1      -0.7295440711E-03       4    8    1        -0.4227114675E-01      0.8549391784E-01
          0                13           2             4    8     1      -0.3749751645E-03       4    8    1        -0.2174262260E-01      0.4339431097E-01
          0                14           2             4    8     1      -0.1925950164E-03       4    8    1        -0.1117468934E-01      0.2203980247E-01
          0                15           1             4    8     1      -0.9885801090E-04       4    8    1        -0.5739212934E-02      0.1119980816E-01

    ------------------------------------------------
       NWT REQUIRED           15 OUTER ITERATIONS 
       AND A TOTAL OF         29 INNER ITERATIONS.
    ------------------------------------------------

 NO OUTPUT CONTROL FOR STRESS PERIOD   18   TIME STEP   30



 STREAM LISTING     PERIOD     18   STEP       30

 LAYER ROW COL. STREAM  RCH.  FLOW INTO     FLOW TO   FLOW OUT OF   OVRLND.     DIRECT     STREAM       STREAM     STREAM     STREAM   STREAMBED  STREAMBED
                SEG.NO.  NO.  STRM. RCH.    AQUIFER    STRM. RCH.    RUNOFF     PRECIP       ET          HEAD       DEPTH      WIDTH   CONDCTNC.   GRADIENT

   1    1    1     1     1    4.7251E+01  3.2762E-01   4.6923E+01  0.000E+00  0.000E+00  0.000E+00  1.09443E+03  1.381E+00  1.662E+01  7.477E-02  1.460E+00
   1    2    2     1     2    4.6923E+01  5.0760E-01   4.6416E+01  0.000E+00  0.000E+00  0.000E+00  1.08944E+03  1.379E+00  1.656E+01  1.159E-01  1.460E+00
   1    3    3     1     3    4.6416E+01  4.3310E-01   4.5982E+01  0.000E+00  0.000E+00  0.000E+00  1.08379E+03  1.376E+00  1.650E+01  9.898E-02  1.459E+00
   1    3    4     1     4    4.5982E+01  3.9899E-01   4.5583E+01  0.000E+00  0.000E+00  0.000E+00  1.07878E+03  1.373E+00  1.644E+01  9.124E-02  1.458E+00
   1    4    5     2     1    4.3583E+01  3.6514E-01   4.3218E+01  0.000E+00  0.000E+00  0.000E+00  1.07362E+03  1.681E+00  1.200E+01  7.800E-02  1.560E+00
   1    5    6     2     2    4.3218E+01  2.8043E-01   4.2938E+01  0.000E+00  0.000E+00  0.000E+00  1.06818E+03  1.674E+00  1.200E+01  6.000E-02  1.558E+00
   1    6    6     2     3    4.2938E+01  2.8003E-01   4.2658E+01  0.000E+00  0.000E+00  0.000E+00  1.06346E+03  1.667E+00  1.200E+01  6.000E-02  1.556E+00
   1    7    6     2     4    4.2658E+01  2.7964E-01   4.2378E+01  0.000E+00  0.000E+00  0.000E+00  1.05874E+03  1.661E+00  1.200E+01  6.000E-02  1.554E+00
   1    8    6     2     5    4.2378E+01  2.7925E-01   4.2099E+01  0.000E+00  0.000E+00  0.000E+00  1.05401E+03  1.654E+00  1.200E+01  6.000E-02  1.551E+00
   1    3    5     3     1    2.0000E+00  2.8252E-01   1.7175E+00  0.000E+00  0.000E+00  0.000E+00  1.07555E+03  1.909E+00  9.636E+00  7.227E-02  1.955E+00
   1    3    6     3     2    1.7175E+00  2.4905E-01   1.4684E+00  0.000E+00  0.000E+00  0.000E+00  1.07264E+03  1.727E+00  8.909E+00  6.682E-02  1.864E+00
   1    3    7     3     3    1.4684E+00  1.9718E-01   1.2712E+00  0.000E+00  0.000E+00  0.000E+00  1.06987E+03  1.555E+00  8.218E+00  5.547E-02  1.777E+00
   1    4    8     3     4    1.2712E+00  2.2567E-01   1.0456E+00  0.000E+00  0.000E+00  0.000E+00  1.06682E+03  1.364E+00  7.455E+00  6.709E-02  1.682E+00
   1    5    8     3     5    1.0456E+00  1.5790E-01   8.8768E-01  0.000E+00  0.000E+00  0.000E+00  1.06362E+03  1.164E+00  6.655E+00  4.991E-02  1.582E+00
   1    6    8     3     6    8.8768E-01  5.5980E-02   8.3170E-01  0.000E+00  0.000E+00  0.000E+00  1.06158E+03  1.036E+00  6.145E+00  1.844E-02  1.518E+00
   1    5   10     4     1    1.0000E+01  9.0919E-02   9.9091E+00  0.000E+00  0.000E+00  0.000E+00  1.07836E+03  6.368E-01  1.000E+01  2.500E-02  1.212E+00
   1    5    9     4     2    9.9091E+00  1.8158E-01   9.7275E+00  0.000E+00  0.000E+00  0.000E+00  1.07154E+03  6.315E-01  1.000E+01  5.000E-02  1.211E+00
   1    6    8     4     3    9.7275E+00  1.2689E-01   9.6006E+00  0.000E+00  0.000E+00  0.000E+00  1.06381E+03  6.256E-01  1.000E+01  3.500E-02  1.209E+00
   1    6    8     5     1    1.0432E+01  2.2686E-01   1.0205E+01  0.000E+00  0.000E+00  0.000E+00  1.05868E+03  6.790E-01  1.542E+01  6.166E-02  1.226E+00
   1    7    7     5     2    1.0205E+01  2.7894E-01   9.9265E+00  0.000E+00  0.000E+00  0.000E+00  1.05417E+03  6.732E-01  1.519E+01  7.594E-02  1.224E+00
   1    8    7     5     3    9.9265E+00  1.9221E-01   9.7343E+00  0.000E+00  0.000E+00  0.000E+00  1.04992E+03  6.676E-01  1.497E+01  5.241E-02  1.223E+00
   1    8    6     5     4    9.7343E+00  1.3577E-01   9.5985E+00  0.000E+00  0.000E+00  0.000E+00  1.04691E+03  6.637E-01  1.482E+01  3.706E-02  1.221E+00
   1    9    6     6     1    9.5985E+00  2.2097E-01   9.3776E+00  0.000E+00  0.000E+00  0.000E+00  1.04341E+03  6.828E-01  1.200E+01  6.000E-02  1.228E+00
   1   10    7     6     2    9.3776E+00  2.2039E-01   9.1572E+00  0.000E+00  0.000E+00  0.000E+00  1.03885E+03  6.732E-01  1.200E+01  6.000E-02  1.224E+00
   1   11    7     6     3    9.1572E+00  2.1981E-01   8.9374E+00  0.000E+00  0.000E+00  0.000E+00  1.03430E+03  6.636E-01  1.200E+01  6.000E-02  1.221E+00
   1   12    7     6     4    8.9374E+00  2.1923E-01   8.7181E+00  0.000E+00  0.000E+00  0.000E+00  1.02974E+03  6.539E-01  1.200E+01  6.000E-02  1.218E+00
   1   13    7     6     5    8.7181E+00 -1.0301E-01   8.8211E+00  0.000E+00  0.000E+00  0.000E+00  1.02656E+03  6.513E-01  1.200E+01  2.400E-01 -1.431E-01
   1   14    9     7     1    1.5000E+02  1.3414E+00   1.4866E+02  0.000E+00  0.000E+00  0.000E+00  1.03987E+03  2.288E+00  5.529E+01  5.593E-01  7.995E-01
   1   13    8     7     2    1.4866E+02  1.8549E+00   1.4680E+02  0.000E+00  0.000E+00  0.000E+00  1.03478E+03  2.279E+00  5.526E+01  6.148E-01  1.006E+00
   1   13    7     7     3    1.4680E+02  1.5078E+00   1.4530E+02  0.000E+00  0.000E+00  0.000E+00  1.02969E+03  2.270E+00  5.522E+01  5.584E-01  9.000E-01
   1   13    6     8     1    1.5412E+02  8.5880E-01   1.5326E+02  0.000E+00  0.000E+00  0.000E+00  1.02472E+03  2.843E+00  4.122E+01  4.200E-01  6.815E-01
   1   13    5     8     2    1.5326E+02  1.2883E-01   1.5313E+02  0.000E+00  0.000E+00  0.000E+00  1.01846E+03  2.839E+00  4.117E+01  4.195E-01  1.024E-01
   1   13    4     8     3    1.5313E+02 -2.5756E+00   1.5571E+02  0.000E+00  0.000E+00  0.000E+00  1.01222E+03  2.848E+00  4.129E+01  4.208E+00 -2.040E-01
   1   13    3     8     4    1.5571E+02 -3.7132E+00   1.5942E+02  0.000E+00  0.000E+00  0.000E+00  1.00599E+03  2.869E+00  4.160E+01  4.240E+00 -2.919E-01
   1   13    2     8     5    1.5942E+02 -2.6160E+00   1.6203E+02  0.000E+00  0.000E+00  0.000E+00  9.99766E+02  2.891E+00  4.192E+01  4.271E+00 -2.041E-01
   1   13    1     8     6    1.6203E+02 -2.0237E+00   1.6406E+02  0.000E+00  0.000E+00  0.000E+00  9.94781E+02  2.906E+00  4.214E+01  2.577E+00 -2.618E-01
   1    8    6     9     1    4.2099E+01  0.0000E+00   4.2099E+01  0.000E+00  0.000E+00  0.000E+00  1.08412E+03  5.368E+00  4.000E+00  0.000E+00  2.789E+00
   1    8    5     9     2    4.2099E+01  0.0000E+00   4.2099E+01  0.000E+00  0.000E+00  0.000E+00  1.08362E+03  5.368E+00  4.000E+00  0.000E+00  2.789E+00





UNSATURATED ZONE PACKAGE VOLUMETRIC BUDGET FOR  TIME STEP    30 STRESS PERIOD   18
  ------------------------------------------------------------------------------



     CUMULATIVE VOLUMES      L**3       RATES FOR THIS TIME STEP      L**3/T
     ------------------                 ------------------------

           IN:                                      IN:
           ---                                      ---
        INFILTRATION =  2436067364.2621          INFILTRATION =         140.2520

          OUT:                                     OUT:
          ----                                     ----
              UZF ET =   472774475.9291                UZF ET =           8.3175
        UZF RECHARGE =  1198712890.5215          UZF RECHARGE =         178.6386

            IN - OUT =   764579997.8115              IN - OUT =         -46.7041

          STORAGE:                                 STORAGE:
          --------                                 --------
      STORAGE CHANGE =   764584042.9034        STORAGE CHANGE =         -46.7041

 PERCENT DISCREPANCY IS DIFFERENCE BETWEEN IN-OUT MINUS CHANGE IN STORAGE
 DIVIDED BY THE AVERAGE OF IN AND OUT TIMES 100

 PERCENT DISCREPANCY =          -0.00     PERCENT DISCREPANCY =           0.00






1
  VOLUMETRIC BUDGET FOR AGRICULTURAL FIELDS AT  END OF TIME STEP   30, STRESS PERIOD  18
  ------------------------------------------------------------------------------

     CUMULATIVE VOLUMES      L**3       RATES FOR THIS TIME STEP      L**3/T
     ------------------                 ------------------------

           IN:                                      IN:
           ---                                      ---
           AG WELLS      =  1608451840.0000             AG WELLS      =          97.3047
      DIVERSION SEGMENTS =   789635456.0000        DIVERSION SEGMENTS =          42.0989
           GW IRRIGATION =           0.0000             GW IRRIGATION =           0.0000
           SW IRRIGATION =           0.0000             SW IRRIGATION =           0.0000
        SYSTEM LOSSES GW =           0.0000          SYSTEM LOSSES GW =           0.0000
        SYSTEM LOSSES SW =           0.0000          SYSTEM LOSSES SW =           0.0000

                TOTAL IN =  2398087168.0000                  TOTAL IN =         139.4037

          OUT:                                     OUT:
          ----                                     ----
           AG WELLS      =           0.0000             AG WELLS      =           0.0000
      DIVERSION SEGMENTS =           0.0000        DIVERSION SEGMENTS =           0.0000
           GW IRRIGATION =  1608451840.0000             GW IRRIGATION =          97.3047
           SW IRRIGATION =   789649920.0000             SW IRRIGATION =          42.0998
        SYSTEM LOSSES GW =           0.0000          SYSTEM LOSSES GW =           0.0000
        SYSTEM LOSSES SW =           0.0000          SYSTEM LOSSES SW =           0.0000

               TOTAL OUT =  2398101760.0000                 TOTAL OUT =         139.4045

                IN - OUT =      -14592.0000                  IN - OUT =      -8.3923E-04

     PERCENT DISCREPANCY =          -0.00         PERCENT DISCREPANCY =          -0.00



1
  VOLUMETRIC BUDGET FOR ENTIRE MODEL AT END OF TIME STEP   30, STRESS PERIOD  18
  ------------------------------------------------------------------------------

     CUMULATIVE VOLUMES      L**3       RATES FOR THIS TIME STEP      L**3/T
     ------------------                 ------------------------

           IN:                                      IN:
           ---                                      ---
             STORAGE     =  1599123968.0000               STORAGE     =          13.9893
       CONSTANT HEAD     =           0.0000         CONSTANT HEAD     =           0.0000
     HEAD DEP BOUNDS     =    12805130.0000       HEAD DEP BOUNDS     =           0.2861
      STREAM LEAKAGE     =   538397376.0000        STREAM LEAKAGE     =          12.1254
        UZF RECHARGE     =  1198712960.0000          UZF RECHARGE     =         178.6386
               GW ET     =           0.0000                 GW ET     =           0.0000
     SURFACE LEAKAGE     =           0.0000       SURFACE LEAKAGE     =           0.0000
           AG WELLS      =           0.0000             AG WELLS      =           0.0000

                TOTAL IN =  3349039616.0000                  TOTAL IN =         205.0394

          OUT:                                     OUT:
          ----                                     ----
             STORAGE     =  1243995264.0000               STORAGE     =          96.4291
       CONSTANT HEAD     =           0.0000         CONSTANT HEAD     =           0.0000
     HEAD DEP BOUNDS     =    12986687.0000       HEAD DEP BOUNDS     =           0.2875
      STREAM LEAKAGE     =   483517920.0000        STREAM LEAKAGE     =          11.0314
        UZF RECHARGE     =           0.0000          UZF RECHARGE     =           0.0000
               GW ET     =      106432.0312                 GW ET     =           0.0000
     SURFACE LEAKAGE     =           0.0000       SURFACE LEAKAGE     =           0.0000
           AG WELLS      =  1608451840.0000             AG WELLS      =          97.3047

               TOTAL OUT =  3349058048.0000                 TOTAL OUT =         205.0528

                IN - OUT =      -18432.0000                  IN - OUT =      -1.3382E-02

     PERCENT DISCREPANCY =          -0.00         PERCENT DISCREPANCY =          -0.01






         TIME SUMMARY AT END OF TIME STEP   30 IN STRESS PERIOD   18
                    SECONDS     MINUTES      HOURS       DAYS        YEARS
                    -----------------------------------------------------------
   TIME STEP LENGTH  87667.      1461.1      24.352      1.0147     2.77799E-03
 STRESS PERIOD TIME 2.63000E+06  43833.      730.56      30.440     8.33397E-02
         TOTAL TIME 4.47965E+07 7.46608E+05  12443.      518.48      1.4195    
1
1
                            STRESS PERIOD NO.   19, LENGTH =   2630000.    
                            -----------------------------------------------

                              NUMBER OF TIME STEPS =    30

                               MULTIPLIER FOR DELT =     1.000

                            INITIAL TIME STEP SIZE =   87666.66    

 REUSING NON-PARAMETER GHB CELLS FROM LAST STRESS PERIOD

      2 GHB CELLS

 REUSING STREAM SEGMENT DATA FROM LAST STRESS PERIOD



            AREAL INFILTRATION RATE
 READING ON UNIT   19 WITH FORMAT: (FREE)              

            1           2           3           4           5           6           7           8           9          10
 ........................................................................................................................
   1   1.0000E-10  2.0000E-10   0.000       0.000       0.000       0.000       0.000       0.000       0.000       0.000    
   2   2.0000E-10  1.0000E-10  2.0000E-10   0.000       0.000      8.0000E-10  8.0000E-10  5.0000E-10   0.000       0.000    
   3    0.000      5.0000E-10  1.0000E-10  1.0000E-10  8.0000E-10  8.0000E-10  5.0000E-10  5.0000E-10   0.000       0.000    
   4   8.0000E-10  5.0000E-10  1.0000E-10  1.0000E-10  1.0000E-10  1.0000E-10  1.0000E-10  1.0000E-10  2.0000E-10   0.000    
   5   8.0000E-10  5.0000E-10  1.0000E-10  1.0000E-10  1.0000E-10  1.0000E-10  1.0000E-10  1.0000E-10  1.0000E-10  1.0000E-10
   6   8.0000E-10  5.0000E-10  5.0000E-10  2.0000E-10  2.0000E-10  1.0000E-10  1.0000E-10  1.0000E-10  1.0000E-10  5.0000E-10
   7   8.0000E-10  5.0000E-10  5.0000E-10  2.0000E-10  2.0000E-10  1.0000E-10  1.0000E-10  2.0000E-10  2.0000E-10   0.000    
   8    0.000      5.0000E-10  5.0000E-10  2.0000E-10  2.0000E-10  1.0000E-10  1.0000E-10  2.0000E-10  5.0000E-10   0.000    
   9    0.000      5.0000E-10  5.0000E-10  2.0000E-10  2.0000E-10  1.0000E-10  1.0000E-10  2.0000E-10  5.0000E-10   0.000    
  10    0.000      5.0000E-10  5.0000E-10  2.0000E-10  2.0000E-10  1.0000E-10  1.0000E-10  2.0000E-10  5.0000E-10  8.0000E-10
  11    0.000      1.0000E-10  1.0000E-10  1.0000E-10  1.0000E-10  1.0000E-10  1.0000E-10  2.0000E-10  5.0000E-10   0.000    
  12   1.0000E-10  1.0000E-10  1.0000E-10  1.0000E-10  1.0000E-10  1.0000E-10  1.0000E-10  1.0000E-10  2.0000E-10   0.000    
  13   1.0000E-10  1.0000E-10  2.0000E-10  2.0000E-10  2.0000E-10  2.0000E-10  2.0000E-10  1.0000E-10  1.0000E-10   0.000    
  14    0.000      2.0000E-10  5.0000E-10  5.0000E-10  5.0000E-10  5.0000E-10  5.0000E-10  2.0000E-10  1.0000E-10   0.000    
  15    0.000       0.000      8.0000E-10  8.0000E-10  8.0000E-10  8.0000E-10   0.000       0.000       0.000       0.000    

                  ET RATE =  1.500000E-07

 USING ET EXTINCTION DEPTH FROM PREVIOUS STRESS PERIOD. CURRENT PERIOD IS:      19

 USING EXTINCTION WATER CONTENT FROM PREVIOUS STRESS PERIOD. CURRENT PERIOD IS:      19

 USING AIR ENTRY PRESSURE FROM PREVIOUS STRESS PERIOD. CURRENT PERIOD IS:      19

 USING ROOT PRESSURE HEAD FROM PREVIOUS STRESS PERIOD. CURRENT PERIOD IS:      19

 USING ROOT ACTIVITY FROM PREVIOUS STRESS PERIOD. CURRENT PERIOD IS:      19

 PROCESSING AG STRESS PERIOD DATA

 READING AG STRESS PERIOD DATA

 READING IRRIGATION SEGMENT

 READING IRRIGATION WELL

 READING SUPPLEMENTAL WELL

 END PROCESSING AG STRESS PERIOD DATA OPTIONS
 
 SOLVING FOR HEAD 
                                                   Max.-Head-Change                         Max.-Flux-Residual
  Residual-Control   Outer-Iter.   Inner-Iter.     Column Row Layer    Maximum-Head-Change  Column Row Layer    Maximum-Flux-Residual          L2-NORM 
          0                 1           2             4    7     1       0.5008575033E+00       4    7    1         0.2626531039E+02      0.5698358669E+02
          0                 2           2             4    7     1       0.2412345947E+00       4    7    1         0.1265459680E+02      0.2666118029E+02
          0                 3           2             4    7     1       0.1161307280E+00       4    7    1         0.6094623089E+01      0.1255372543E+02
          0                 4           2             4    7     1       0.5587682410E-01       4    7    1         0.2933709368E+01      0.5927268114E+01
          0                 5           2             4    7     1       0.2687166430E-01       4    7    1         0.1411445070E+01      0.2808852761E+01
          0                 6           2             4    7     1       0.1291661119E-01       4    7    1         0.6787175320E+00      0.1340220459E+01
          0                 7           2             4    7     1       0.6205969536E-02       4    7    1         0.3262178726E+00      0.6395141726E+00
          0                 8           2             4    7     1       0.2980523253E-02       4    7    1         0.1567242225E+00      0.3051747020E+00
          0                 9           2             4    7     1       0.1430904498E-02       4    7    1         0.7526425541E-01      0.1456358057E+00
          0                10           2             4    7     1       0.6867145917E-03       4    7    1         0.3613091164E-01      0.6950348126E-01
                                                   Max.-Head-Change                         Max.-Flux-Residual
  Residual-Control   Outer-Iter.   Inner-Iter.     Column Row Layer    Maximum-Head-Change  Column Row Layer    Maximum-Flux-Residual          L2-NORM 
          0                11           2             4    7     1       0.3294583768E-03       4    7    1         0.1733878326E-01      0.3317122111E-01
          0                12           2             4    7     1       0.1580133143E-03       4    7    1         0.8317998727E-02      0.1583182218E-01
          0                13           1             4    7     1       0.7576436632E-04       4    7    1         0.3989235287E-02      0.7556369293E-02

    ------------------------------------------------
       NWT REQUIRED           13 OUTER ITERATIONS 
       AND A TOTAL OF         25 INNER ITERATIONS.
    ------------------------------------------------

 OUTPUT CONTROL FOR STRESS PERIOD   19   TIME STEP    1
    PRINT BUDGET
    SAVE BUDGET
 UBDSV1 SAVING "         STORAGE" ON UNIT 102 AT TIME STEP  1, STRESS PERIOD  19
 UBDSV2 SAVING "   CONSTANT HEAD" ON UNIT 102 AT TIME STEP  1, STRESS PERIOD  19
 UBDSV1 SAVING "FLOW RIGHT FACE " ON UNIT 102 AT TIME STEP  1, STRESS PERIOD  19
 UBDSV1 SAVING "FLOW FRONT FACE " ON UNIT 102 AT TIME STEP  1, STRESS PERIOD  19

  HEAD DEP BOUNDS   PERIOD   19   STEP     1
 BOUNDARY      1   LAYER   1   ROW    13   COL     1   RATE   -0.287624    
 BOUNDARY      2   LAYER   1   ROW    14   COL     9   RATE    0.286143    



 STREAM LISTING     PERIOD     19   STEP        1

 LAYER ROW COL. STREAM  RCH.  FLOW INTO     FLOW TO   FLOW OUT OF   OVRLND.     DIRECT     STREAM       STREAM     STREAM     STREAM   STREAMBED  STREAMBED
                SEG.NO.  NO.  STRM. RCH.    AQUIFER    STRM. RCH.    RUNOFF     PRECIP       ET          HEAD       DEPTH      WIDTH   CONDCTNC.   GRADIENT

   1    1    1     1     1    4.3652E+01  3.1614E-01   4.3336E+01  0.000E+00  0.000E+00  0.000E+00  1.09441E+03  1.357E+00  1.612E+01  7.255E-02  1.452E+00
   1    2    2     1     2    4.3336E+01  4.8972E-01   4.2846E+01  0.000E+00  0.000E+00  0.000E+00  1.08941E+03  1.355E+00  1.607E+01  1.125E-01  1.452E+00
   1    3    3     1     3    4.2846E+01  4.1777E-01   4.2428E+01  0.000E+00  0.000E+00  0.000E+00  1.08377E+03  1.351E+00  1.600E+01  9.601E-02  1.450E+00
   1    3    4     1     4    4.2428E+01  3.8480E-01   4.2043E+01  0.000E+00  0.000E+00  0.000E+00  1.07876E+03  1.349E+00  1.594E+01  8.849E-02  1.450E+00
   1    4    5     2     1    4.0043E+01  3.5862E-01   3.9685E+01  0.000E+00  0.000E+00  0.000E+00  1.07353E+03  1.598E+00  1.200E+01  7.800E-02  1.533E+00
   1    5    6     2     2    3.9685E+01  2.7540E-01   3.9409E+01  0.000E+00  0.000E+00  0.000E+00  1.06810E+03  1.590E+00  1.200E+01  6.000E-02  1.530E+00
   1    6    6     2     3    3.9409E+01  2.7500E-01   3.9134E+01  0.000E+00  0.000E+00  0.000E+00  1.06338E+03  1.583E+00  1.200E+01  6.000E-02  1.528E+00
   1    7    6     2     4    3.9134E+01  2.7461E-01   3.8860E+01  0.000E+00  0.000E+00  0.000E+00  1.05865E+03  1.577E+00  1.200E+01  6.000E-02  1.526E+00
   1    8    6     2     5    3.8860E+01  2.7421E-01   3.8585E+01  0.000E+00  0.000E+00  0.000E+00  1.05393E+03  1.570E+00  1.200E+01  6.000E-02  1.523E+00
   1    3    5     3     1    2.0000E+00  2.8252E-01   1.7175E+00  0.000E+00  0.000E+00  0.000E+00  1.07555E+03  1.909E+00  9.636E+00  7.227E-02  1.955E+00
   1    3    6     3     2    1.7175E+00  2.4905E-01   1.4684E+00  0.000E+00  0.000E+00  0.000E+00  1.07264E+03  1.727E+00  8.909E+00  6.682E-02  1.864E+00
   1    3    7     3     3    1.4684E+00  1.9718E-01   1.2712E+00  0.000E+00  0.000E+00  0.000E+00  1.06987E+03  1.555E+00  8.218E+00  5.547E-02  1.777E+00
   1    4    8     3     4    1.2712E+00  2.2567E-01   1.0456E+00  0.000E+00  0.000E+00  0.000E+00  1.06682E+03  1.364E+00  7.455E+00  6.709E-02  1.682E+00
   1    5    8     3     5    1.0456E+00  1.5790E-01   8.8768E-01  0.000E+00  0.000E+00  0.000E+00  1.06362E+03  1.164E+00  6.655E+00  4.991E-02  1.582E+00
   1    6    8     3     6    8.8768E-01  5.5980E-02   8.3170E-01  0.000E+00  0.000E+00  0.000E+00  1.06158E+03  1.036E+00  6.145E+00  1.844E-02  1.518E+00
   1    5   10     4     1    1.0000E+01  9.0919E-02   9.9091E+00  0.000E+00  0.000E+00  0.000E+00  1.07836E+03  6.368E-01  1.000E+01  2.500E-02  1.212E+00
   1    5    9     4     2    9.9091E+00  1.8158E-01   9.7275E+00  0.000E+00  0.000E+00  0.000E+00  1.07154E+03  6.315E-01  1.000E+01  5.000E-02  1.211E+00
   1    6    8     4     3    9.7275E+00  1.2689E-01   9.6006E+00  0.000E+00  0.000E+00  0.000E+00  1.06381E+03  6.256E-01  1.000E+01  3.500E-02  1.209E+00
   1    6    8     5     1    1.0432E+01  2.2686E-01   1.0205E+01  0.000E+00  0.000E+00  0.000E+00  1.05868E+03  6.790E-01  1.542E+01  6.166E-02  1.226E+00
   1    7    7     5     2    1.0205E+01  2.7894E-01   9.9265E+00  0.000E+00  0.000E+00  0.000E+00  1.05417E+03  6.732E-01  1.519E+01  7.594E-02  1.224E+00
   1    8    7     5     3    9.9265E+00  1.9221E-01   9.7343E+00  0.000E+00  0.000E+00  0.000E+00  1.04992E+03  6.676E-01  1.497E+01  5.241E-02  1.223E+00
   1    8    6     5     4    9.7343E+00  1.3577E-01   9.5985E+00  0.000E+00  0.000E+00  0.000E+00  1.04691E+03  6.637E-01  1.482E+01  3.706E-02  1.221E+00
   1    9    6     6     1    2.5684E+01  2.5424E-01   2.5430E+01  0.000E+00  0.000E+00  0.000E+00  1.04396E+03  1.237E+00  1.200E+01  6.000E-02  1.412E+00
   1   10    7     6     2    2.5430E+01  2.5379E-01   2.5176E+01  0.000E+00  0.000E+00  0.000E+00  1.03941E+03  1.230E+00  1.200E+01  6.000E-02  1.410E+00
   1   11    7     6     3    2.5176E+01  2.5335E-01   2.4923E+01  0.000E+00  0.000E+00  0.000E+00  1.03486E+03  1.222E+00  1.200E+01  6.000E-02  1.407E+00
   1   12    7     6     4    2.4923E+01  2.5290E-01   2.4670E+01  0.000E+00  0.000E+00  0.000E+00  1.03031E+03  1.215E+00  1.200E+01  6.000E-02  1.405E+00
   1   13    7     6     5    2.4670E+01  3.1069E-03   2.4667E+01  0.000E+00  0.000E+00  0.000E+00  1.02712E+03  1.211E+00  1.200E+01  2.400E-02  4.315E-02
   1   14    9     7     1    1.5000E+02  1.3415E+00   1.4866E+02  0.000E+00  0.000E+00  0.000E+00  1.03987E+03  2.288E+00  5.529E+01  5.593E-01  7.995E-01
   1   13    8     7     2    1.4866E+02  1.8550E+00   1.4680E+02  0.000E+00  0.000E+00  0.000E+00  1.03478E+03  2.279E+00  5.526E+01  6.148E-01  1.006E+00
   1   13    7     7     3    1.4680E+02  1.5070E+00   1.4530E+02  0.000E+00  0.000E+00  0.000E+00  1.02969E+03  2.270E+00  5.522E+01  5.584E-01  8.995E-01
   1   13    6     8     1    1.6996E+02  9.3697E-01   1.6903E+02  0.000E+00  0.000E+00  0.000E+00  1.02482E+03  2.949E+00  4.276E+01  4.357E-01  7.168E-01
   1   13    5     8     2    1.6903E+02  1.7979E-01   1.6885E+02  0.000E+00  0.000E+00  0.000E+00  1.01857E+03  2.945E+00  4.271E+01  4.352E-01  1.377E-01
   1   13    4     8     3    1.6885E+02 -2.2381E+00   1.7108E+02  0.000E+00  0.000E+00  0.000E+00  1.01233E+03  2.952E+00  4.280E+01  4.362E+00 -1.710E-01
   1   13    3     8     4    1.7108E+02 -3.4212E+00   1.7451E+02  0.000E+00  0.000E+00  0.000E+00  1.00610E+03  2.970E+00  4.307E+01  4.389E+00 -2.598E-01
   1   13    2     8     5    1.7451E+02 -2.2951E+00   1.7680E+02  0.000E+00  0.000E+00  0.000E+00  9.99864E+02  2.989E+00  4.334E+01  4.416E+00 -1.732E-01
   1   13    1     8     6    1.7680E+02 -1.8423E+00   1.7864E+02  0.000E+00  0.000E+00  0.000E+00  9.94877E+02  3.002E+00  4.353E+01  2.661E+00 -2.308E-01
   1    8    6     9     1    2.2500E+01  0.0000E+00   2.2500E+01  0.000E+00  0.000E+00  0.000E+00  1.08244E+03  3.686E+00  4.000E+00  0.000E+00  2.229E+00
   1    8    5     9     2    2.2500E+01  0.0000E+00   2.2500E+01  0.000E+00  0.000E+00  0.000E+00  1.08194E+03  3.686E+00  4.000E+00  0.000E+00  2.229E+00



 UBDSV3 SAVING "           GW ET" ON UNIT  61 AT TIME STEP  1, STRESS PERIOD  19
 UBDSV3 SAVING "    UZF RECHARGE" ON UNIT  61 AT TIME STEP  1, STRESS PERIOD  19
 UBDSV3 SAVING " SURFACE LEAKAGE" ON UNIT  61 AT TIME STEP  1, STRESS PERIOD  19
 UBDSV3 SAVING "       HORT+DUNN" ON UNIT  61 AT TIME STEP  1, STRESS PERIOD  19
 UBDSV3 SAVING "  STORAGE CHANGE" ON UNIT  61 AT TIME STEP  1, STRESS PERIOD  19


UNSATURATED ZONE PACKAGE VOLUMETRIC BUDGET FOR  TIME STEP     1 STRESS PERIOD   19
  ------------------------------------------------------------------------------



     CUMULATIVE VOLUMES      L**3       RATES FOR THIS TIME STEP      L**3/T
     ------------------                 ------------------------

           IN:                                      IN:
           ---                                      ---
        INFILTRATION =  2438114201.0080          INFILTRATION =          23.3479

          OUT:                                     OUT:
          ----                                     ----
              UZF ET =   474818643.4250                UZF ET =          23.3175
        UZF RECHARGE =  1223317535.2715          UZF RECHARGE =         280.6614

            IN - OUT =   739978022.3115              IN - OUT =        -280.6309

          STORAGE:                                 STORAGE:
          --------                                 --------
      STORAGE CHANGE =   739981300.9502        STORAGE CHANGE =        -280.6397

 PERCENT DISCREPANCY IS DIFFERENCE BETWEEN IN-OUT MINUS CHANGE IN STORAGE
 DIVIDED BY THE AVERAGE OF IN AND OUT TIMES 100

 PERCENT DISCREPANCY =          -0.00     PERCENT DISCREPANCY =           0.00






 

        AG WELLS          PERIOD   19   STEP   1
 AG WELL      1   LAYER   1   ROW     6   COL     4   RATE     0.00000    
 AG WELL      2   LAYER   1   ROW     6   COL     5   RATE     0.00000    
 AG WELL      3   LAYER   1   ROW     7   COL     4   RATE     0.00000    
 AG WELL      4   LAYER   1   ROW     7   COL     5   RATE     0.00000    
 AG WELL      5   LAYER   1   ROW     8   COL     4   RATE     0.00000    
 AG WELL      6   LAYER   1   ROW     8   COL     5   RATE     0.00000    
 
 

   DIVERSION SEGMENTS     PERIOD   19   STEP   1
 SEGMENT      9   RATE     22.5000    
 
 

        SW IRRIGATION     PERIOD   19   STEP   1
 SEGMENT      9   ROW     6   COL     4   RATE     3.75007    
 SEGMENT      9   ROW     6   COL     5   RATE     3.75007    
 SEGMENT      9   ROW     7   COL     4   RATE     3.75007    
 SEGMENT      9   ROW     7   COL     5   RATE     3.75007    
 SEGMENT      9   ROW     8   COL     4   RATE     3.75007    
 SEGMENT      9   ROW     8   COL     5   RATE     3.75007    
 
 

        GW IRRIGATION     PERIOD   19   STEP   1
 AG WELL      1   ROW     6   COL     4   RATE     0.00000    
 AG WELL      2   ROW     6   COL     5   RATE     0.00000    
 AG WELL      3   ROW     7   COL     4   RATE     0.00000    
 AG WELL      4   ROW     7   COL     5   RATE     0.00000    
 AG WELL      5   ROW     8   COL     4   RATE     0.00000    
 AG WELL      6   ROW     8   COL     5   RATE     0.00000    
 
1
  VOLUMETRIC BUDGET FOR AGRICULTURAL FIELDS AT  END OF TIME STEP    1, STRESS PERIOD  19
  ------------------------------------------------------------------------------

     CUMULATIVE VOLUMES      L**3       RATES FOR THIS TIME STEP      L**3/T
     ------------------                 ------------------------

           IN:                                      IN:
           ---                                      ---
           AG WELLS      =  1608451840.0000             AG WELLS      =           0.0000
      DIVERSION SEGMENTS =   791607936.0000        DIVERSION SEGMENTS =          22.5000
           GW IRRIGATION =           0.0000             GW IRRIGATION =           0.0000
           SW IRRIGATION =           0.0000             SW IRRIGATION =           0.0000
        SYSTEM LOSSES GW =           0.0000          SYSTEM LOSSES GW =           0.0000
        SYSTEM LOSSES SW =           0.0000          SYSTEM LOSSES SW =           0.0000

                TOTAL IN =  2400059904.0000                  TOTAL IN =          22.5000

          OUT:                                     OUT:
          ----                                     ----
           AG WELLS      =           0.0000             AG WELLS      =           0.0000
      DIVERSION SEGMENTS =           0.0000        DIVERSION SEGMENTS =           0.0000
           GW IRRIGATION =  1608451840.0000             GW IRRIGATION =           0.0000
           SW IRRIGATION =   791622464.0000             SW IRRIGATION =          22.5005
        SYSTEM LOSSES GW =           0.0000          SYSTEM LOSSES GW =           0.0000
        SYSTEM LOSSES SW =           0.0000          SYSTEM LOSSES SW =           0.0000

               TOTAL OUT =  2400074240.0000                 TOTAL OUT =          22.5005

                IN - OUT =      -14336.0000                  IN - OUT =      -4.5013E-04

     PERCENT DISCREPANCY =          -0.00         PERCENT DISCREPANCY =          -0.00



1
  VOLUMETRIC BUDGET FOR ENTIRE MODEL AT END OF TIME STEP    1, STRESS PERIOD  19
  ------------------------------------------------------------------------------

     CUMULATIVE VOLUMES      L**3       RATES FOR THIS TIME STEP      L**3/T
     ------------------                 ------------------------

           IN:                                      IN:
           ---                                      ---
             STORAGE     =  1600241024.0000               STORAGE     =          12.7421
       CONSTANT HEAD     =           0.0000         CONSTANT HEAD     =           0.0000
     HEAD DEP BOUNDS     =    12830215.0000       HEAD DEP BOUNDS     =           0.2861
      STREAM LEAKAGE     =   539476160.0000        STREAM LEAKAGE     =          12.3053
        UZF RECHARGE     =  1223317632.0000          UZF RECHARGE     =         280.6613
               GW ET     =           0.0000                 GW ET     =           0.0000
     SURFACE LEAKAGE     =           0.0000       SURFACE LEAKAGE     =           0.0000
           AG WELLS      =           0.0000             AG WELLS      =           0.0000

                TOTAL IN =  3375864832.0000                  TOTAL IN =         305.9949

          OUT:                                     OUT:
          ----                                     ----
             STORAGE     =  1269936000.0000               STORAGE     =         295.9020
       CONSTANT HEAD     =           0.0000         CONSTANT HEAD     =           0.0000
     HEAD DEP BOUNDS     =    13011902.0000       HEAD DEP BOUNDS     =           0.2876
      STREAM LEAKAGE     =   484376768.0000        STREAM LEAKAGE     =           9.7966
        UZF RECHARGE     =           0.0000          UZF RECHARGE     =           0.0000
               GW ET     =      106432.0312                 GW ET     =           0.0000
     SURFACE LEAKAGE     =           0.0000       SURFACE LEAKAGE     =           0.0000
           AG WELLS      =  1608451840.0000             AG WELLS      =           0.0000

               TOTAL OUT =  3375883008.0000                 TOTAL OUT =         305.9863

                IN - OUT =      -18176.0000                  IN - OUT =       8.6365E-03

     PERCENT DISCREPANCY =          -0.00         PERCENT DISCREPANCY =           0.00






         TIME SUMMARY AT END OF TIME STEP    1 IN STRESS PERIOD   19
                    SECONDS     MINUTES      HOURS       DAYS        YEARS
                    -----------------------------------------------------------
   TIME STEP LENGTH  87667.      1461.1      24.352      1.0147     2.77799E-03
 STRESS PERIOD TIME  87667.      1461.1      24.352      1.0147     2.77799E-03
         TOTAL TIME 4.48841E+07 7.48069E+05  12468.      519.49      1.4223    
1
 
 SOLVING FOR HEAD 
                                                   Max.-Head-Change                         Max.-Flux-Residual
  Residual-Control   Outer-Iter.   Inner-Iter.     Column Row Layer    Maximum-Head-Change  Column Row Layer    Maximum-Flux-Residual          L2-NORM 
          0                 1           2             4    7     1       0.4904473371E+00       4    7    1         0.2573349683E+02      0.5508200481E+02
          0                 2           2             4    7     1       0.2360576853E+00       4    7    1         0.1239015096E+02      0.2618266805E+02
          0                 3           2             4    7     1       0.1134480703E+00       4    7    1         0.5963137461E+01      0.1227656284E+02
          0                 4           2             4    7     1       0.5443236491E-01       4    7    1         0.2865014474E+01      0.5761175016E+01
          0                 5           2             4    7     1       0.2607975269E-01       4    7    1         0.1374246556E+01      0.2710020044E+01
          0                 6           2             4    7     1       0.1248049125E-01       4    7    1         0.6582773948E+00      0.1277143540E+01
          0                 7           2             4    7     1       0.5966505778E-02       4    7    1         0.3149564719E+00      0.6027572059E+00
          0                 8           2             4    7     1       0.2849929362E-02       4    7    1         0.1505446100E+00      0.2848023842E+00
          0                 9           2             4    7     1       0.1360281428E-02       4    7    1         0.7189793040E-01      0.1346902127E+00
          0                10           2             4    7     1       0.6488591385E-03       4    7    1         0.3431289563E-01      0.6374352330E-01
                                                   Max.-Head-Change                         Max.-Flux-Residual
  Residual-Control   Outer-Iter.   Inner-Iter.     Column Row Layer    Maximum-Head-Change  Column Row Layer    Maximum-Flux-Residual          L2-NORM 
          0                11           2             4    7     1       0.3093415195E-03       4    7    1         0.1636564298E-01      0.3018413963E-01
          0                12           2             4    7     1       0.1474094339E-03       4    7    1         0.7801560138E-02      0.1429927384E-01
          0                13           1             4    7     1       0.7021658974E-04       4    7    1         0.3717360489E-02      0.6776457184E-02

    ------------------------------------------------
       NWT REQUIRED           13 OUTER ITERATIONS 
       AND A TOTAL OF         25 INNER ITERATIONS.
    ------------------------------------------------

 NO OUTPUT CONTROL FOR STRESS PERIOD   19   TIME STEP    2
 
 SOLVING FOR HEAD 
                                                   Max.-Head-Change                         Max.-Flux-Residual
  Residual-Control   Outer-Iter.   Inner-Iter.     Column Row Layer    Maximum-Head-Change  Column Row Layer    Maximum-Flux-Residual          L2-NORM 
          0                 1           2             4    7     1       0.4793676597E+00       4    7    1         0.2516190467E+02      0.5326562022E+02
          0                 2           2             4    7     1       0.1528503061E+00       4    7    1         0.8049314317E+01      0.1565243632E+02
          0                 3           2             4    7     1       0.1377498956E+00       4    7    1         0.7216576794E+01      0.1627239239E+02
          0                 4           2             4    6     1       0.6265362289E-01       4    6    1         0.3326648658E+01      0.7485012621E+01
          0                 5           2             4    6     1       0.2970084509E-01       4    6    1         0.1578870000E+01      0.3460766143E+01
          0                 6           2             4    6     1       0.1406366666E-01       4    6    1         0.7482738326E+00      0.1622273457E+01
          0                 7           2             4    6     1       0.6659727788E-02       4    6    1         0.3542497218E+00      0.7708137528E+00
          0                 8           2             4    6     1       0.3154582375E-02       4    6    1         0.1677608603E+00      0.3663454225E+00
          0                 9           2             4    6     1       0.1494683034E-02       4    6    1         0.7946907341E-01      0.1741564424E+00
          0                10           2             4    6     1       0.7083905272E-03       4    6    1         0.3765533170E-01      0.8281096321E-01
                                                   Max.-Head-Change                         Max.-Flux-Residual
  Residual-Control   Outer-Iter.   Inner-Iter.     Column Row Layer    Maximum-Head-Change  Column Row Layer    Maximum-Flux-Residual          L2-NORM 
          0                11           2             4    6     1       0.3358207862E-03       4    6    1         0.1784720668E-01      0.3938475811E-01
          0                12           2             4    6     1       0.1592386847E-03       4    6    1         0.8461050816E-02      0.1873499630E-01
          0                13           1             4    6     1       0.7552512735E-04       4    6    1         0.4012210031E-02      0.8913692020E-02

    ------------------------------------------------
       NWT REQUIRED           13 OUTER ITERATIONS 
       AND A TOTAL OF         25 INNER ITERATIONS.
    ------------------------------------------------

 NO OUTPUT CONTROL FOR STRESS PERIOD   19   TIME STEP    3
 
 SOLVING FOR HEAD 
                                                   Max.-Head-Change                         Max.-Flux-Residual
  Residual-Control   Outer-Iter.   Inner-Iter.     Column Row Layer    Maximum-Head-Change  Column Row Layer    Maximum-Flux-Residual          L2-NORM 
          0                 1           2             4    7     1       0.4694765366E+00       4    7    1         0.2466888519E+02      0.5154613153E+02
          0                 2           2             4    7     1       0.2255156725E+00       4    7    1         0.1185664404E+02      0.2434084983E+02
          0                 3           2             4    7     1       0.3646423009E-01       4    7    1         0.1949813942E+01      0.2733633312E+01
          0                 4           2             4    7     1       0.8884986814E-01       4    7    1         0.4662552639E+01      0.1020762394E+02
          0                 5           2             4    7     1       0.4270434753E-01       4    7    1         0.2244575006E+01      0.4787869683E+01
          0                 6           2             4    7     1       0.2049103928E-01       4    7    1         0.1078464945E+01      0.2250522747E+01
          0                 7           2             4    7     1       0.9818602342E-02       4    7    1         0.5173419819E+00      0.1059533798E+01
          0                 8           2             4    7     1       0.4699210668E-02       4    7    1         0.2478348287E+00      0.4994341352E+00
          0                 9           2             4    7     1       0.2246820575E-02       4    7    1         0.1185911378E+00      0.2356419465E+00
          0                10           2             4    7     1       0.1073359044E-02       4    7    1         0.5669220637E-01      0.1112619959E+00
                                                   Max.-Head-Change                         Max.-Flux-Residual
  Residual-Control   Outer-Iter.   Inner-Iter.     Column Row Layer    Maximum-Head-Change  Column Row Layer    Maximum-Flux-Residual          L2-NORM 
          0                11           2             4    7     1       0.5123993433E-03       4    7    1         0.2707935997E-01      0.5256447965E-01
          0                12           2             4    7     1       0.2444576886E-03       4    7    1         0.1292555763E-01      0.2484491319E-01
          0                13           1             4    7     1       0.1165648645E-03       4    7    1         0.6165938928E-02      0.1174743623E-01
          0                14           1             4    7     1       0.5555607382E-04       4    7    1         0.2939843348E-02      0.5556220449E-02

    ------------------------------------------------
       NWT REQUIRED           14 OUTER ITERATIONS 
       AND A TOTAL OF         26 INNER ITERATIONS.
    ------------------------------------------------

 NO OUTPUT CONTROL FOR STRESS PERIOD   19   TIME STEP    4
 
 SOLVING FOR HEAD 
                                                   Max.-Head-Change                         Max.-Flux-Residual
  Residual-Control   Outer-Iter.   Inner-Iter.     Column Row Layer    Maximum-Head-Change  Column Row Layer    Maximum-Flux-Residual          L2-NORM 
          0                 1           2             4    7     1       0.4574309630E+00       4    7    1         0.2404215047E+02      0.4992052689E+02
          0                 2           2             4    7     1       0.2195244111E+00       4    7    1         0.1155181787E+02      0.2332141989E+02
          0                 3           2             4    7     1       0.3362116645E-01       4    7    1         0.1797506993E+01      0.2488697813E+01
          0                 4           2             4    7     1       0.8751604759E-01       4    7    1         0.4591031420E+01      0.1007129799E+02
          0                 5           2             4    7     1       0.4213124267E-01       4    7    1         0.2211019182E+01      0.4793530459E+01
          0                 6           2             4    7     1       0.2027343351E-01       4    7    1         0.1064328127E+01      0.2281954106E+01
          0                 7           2             4    7     1       0.9751364485E-02       4    7    1         0.5121131515E+00      0.1086450243E+01
          0                 8           2             4    7     1       0.4688422379E-02       4    7    1         0.2463046615E+00      0.5173224066E+00
          0                 9           2             4    7     1       0.2253300980E-02       4    7    1         0.1184142264E+00      0.2463524731E+00
          0                10           2             4    7     1       0.1082556004E-02       4    7    1         0.5690724422E-01      0.1173256218E+00
                                                   Max.-Head-Change                         Max.-Flux-Residual
  Residual-Control   Outer-Iter.   Inner-Iter.     Column Row Layer    Maximum-Head-Change  Column Row Layer    Maximum-Flux-Residual          L2-NORM 
          0                11           2             4    7     1       0.5199091742E-03       4    7    1         0.2733827950E-01      0.5588117427E-01
          0                12           2             4    7     1       0.2496074125E-03       4    7    1         0.1312870723E-01      0.2661776809E-01
          0                13           1             4    7     1       0.1197972989E-03       4    7    1         0.6302702577E-02      0.1267967819E-01
          0                14           1             4    7     1       0.5747811216E-04       4    7    1         0.3024769916E-02      0.6040495908E-02

    ------------------------------------------------
       NWT REQUIRED           14 OUTER ITERATIONS 
       AND A TOTAL OF         26 INNER ITERATIONS.
    ------------------------------------------------

 NO OUTPUT CONTROL FOR STRESS PERIOD   19   TIME STEP    5
 
 SOLVING FOR HEAD 
                                                   Max.-Head-Change                         Max.-Flux-Residual
  Residual-Control   Outer-Iter.   Inner-Iter.     Column Row Layer    Maximum-Head-Change  Column Row Layer    Maximum-Flux-Residual          L2-NORM 
          0                 1           2             4    7     1       0.4456284576E+00       4    7    1         0.2342827643E+02      0.4841570895E+02
          0                 2           2             4    7     1       0.2138782788E+00       4    7    1         0.1125312119E+02      0.2266272542E+02
          0                 3           2             4    7     1       0.3085959966E-01       4    7    1         0.1652885340E+01      0.2272789463E+01
          0                 4           2             4    7     1       0.8617881479E-01       4    7    1         0.4521236049E+01      0.9918312564E+01
          0                 5           2             4    7     1       0.4148157628E-01       4    7    1         0.2177199696E+01      0.4760139480E+01
          0                 6           2             4    7     1       0.1995743520E-01       4    7    1         0.1047888630E+01      0.2286241065E+01
          0                 7           2             4    7     1       0.9597810216E-02       4    7    1         0.5041159195E+00      0.1098782749E+01
          0                 8           2             4    7     1       0.4614011607E-02       4    7    1         0.2424194057E+00      0.5284203755E+00
          0                 9           2             4    7     1       0.2217397859E-02       4    7    1         0.1165324602E+00      0.2542813798E+00
          0                10           2             4    7     1       0.1065331308E-02       5    8    1         0.5702272488E-01      0.1224352753E+00
                                                   Max.-Head-Change                         Max.-Flux-Residual
  Residual-Control   Outer-Iter.   Inner-Iter.     Column Row Layer    Maximum-Head-Change  Column Row Layer    Maximum-Flux-Residual          L2-NORM 
          0                11           2             4    7     1       0.5117032198E-03       5    8    1         0.2832771100E-01      0.5898553764E-01
          0                12           2             5    8     1       0.2465582479E-03       5    8    1         0.1405639322E-01      0.2843293900E-01
          0                13           1             5    8     1       0.1221171541E-03       5    8    1         0.6967483875E-02      0.1371278656E-01
          0                14           1             5    8     1       0.6042781086E-04       5    8    1         0.3450277453E-02      0.6616802980E-02

    ------------------------------------------------
       NWT REQUIRED           14 OUTER ITERATIONS 
       AND A TOTAL OF         26 INNER ITERATIONS.
    ------------------------------------------------

 NO OUTPUT CONTROL FOR STRESS PERIOD   19   TIME STEP    6
 
 SOLVING FOR HEAD 
                                                   Max.-Head-Change                         Max.-Flux-Residual
  Residual-Control   Outer-Iter.   Inner-Iter.     Column Row Layer    Maximum-Head-Change  Column Row Layer    Maximum-Flux-Residual          L2-NORM 
          0                 1           2             4    7     1       0.4338160450E+00       4    7    1         0.2282073254E+02      0.4702036706E+02
          0                 2           2             4    7     1       0.2080386711E+00       4    7    1         0.1095347580E+02      0.2187885318E+02
          0                 3           2             4    7     1       0.2805476093E-01       4    7    1         0.1506926256E+01      0.2062810237E+01
          0                 4           2             4    7     1       0.8481288780E-01       4    7    1         0.4450255239E+01      0.9725157786E+01
          0                 5           2             4    7     1       0.4081435021E-01       4    7    1         0.2142623303E+01      0.4648924249E+01
          0                 6           2             4    7     1       0.1962991413E-01       4    7    1         0.1030989082E+01      0.2202068599E+01
          0                 7           2             4    7     1       0.9435906850E-02       4    7    1         0.4958131321E+00      0.1038953937E+01
          0                 8           2             4    7     1       0.4533286616E-02       4    7    1         0.2383099724E+00      0.4905489104E+00
          0                 9           2             4    7     1       0.2176769464E-02       4    7    1         0.1144804634E+00      0.2317659380E+00
          0                10           2             4    7     1       0.1044690413E-02       4    7    1         0.5496562422E-01      0.1095629428E+00
                                                   Max.-Head-Change                         Max.-Flux-Residual
  Residual-Control   Outer-Iter.   Inner-Iter.     Column Row Layer    Maximum-Head-Change  Column Row Layer    Maximum-Flux-Residual          L2-NORM 
          0                11           2             4    7     1       0.5011242740E-03       4    7    1         0.2637715256E-01      0.5181963073E-01
          0                12           2             4    7     1       0.2402664138E-03       4    7    1         0.1265168783E-01      0.2451969314E-01
          0                13           1             4    7     1       0.1151430913E-03       4    7    1         0.6065408274E-02      0.1160653862E-01
          0                14           1             4    7     1       0.5515532290E-04       4    7    1         0.2906498286E-02      0.5495879362E-02

    ------------------------------------------------
       NWT REQUIRED           14 OUTER ITERATIONS 
       AND A TOTAL OF         26 INNER ITERATIONS.
    ------------------------------------------------

 NO OUTPUT CONTROL FOR STRESS PERIOD   19   TIME STEP    7
 
 SOLVING FOR HEAD 
                                                   Max.-Head-Change                         Max.-Flux-Residual
  Residual-Control   Outer-Iter.   Inner-Iter.     Column Row Layer    Maximum-Head-Change  Column Row Layer    Maximum-Flux-Residual          L2-NORM 
          0                 1           2             4    7     1       0.4219976905E+00       4    7    1         0.2220426677E+02      0.4573429983E+02
          0                 2           2             4    7     1       0.2013385896E+00       4    7    1         0.1060779327E+02      0.2051740837E+02
          0                 3           2             5    8     1      -0.1840186917E-01       5    8    1        -0.1058142923E+01      0.1933422518E+01
          0                 4           2             4    7     1       0.7814564121E-01       4    7    1         0.4094088477E+01      0.9125447852E+01
          0                 5           2             4    8     1       0.3495142910E-01       4    8    1         0.1853669582E+01      0.4200767454E+01
          0                 6           2             4    8     1       0.1656011569E-01       4    8    1         0.8795848633E+00      0.1960178360E+01
          0                 7           2             4    8     1       0.7834107269E-02       4    8    1         0.4166404247E+00      0.9174564626E+00
          0                 8           2             4    8     1       0.3701120640E-02       4    8    1         0.1970554162E+00      0.4305879083E+00
          0                 9           2             4    8     1       0.1746509370E-02       5    6    1         0.9575110318E-01      0.2025846088E+00
          0                10           2             5    6     1       0.8323139028E-03       5    6    1         0.4747172620E-01      0.9552514028E-01
                                                   Max.-Head-Change                         Max.-Flux-Residual
  Residual-Control   Outer-Iter.   Inner-Iter.     Column Row Layer    Maximum-Head-Change  Column Row Layer    Maximum-Flux-Residual          L2-NORM 
          0                11           2             5    6     1       0.4112601872E-03       5    6    1         0.2349137028E-01      0.4513441980E-01
          0                12           2             5    6     1       0.2028917389E-03       5    6    1         0.1160485875E-01      0.2136490254E-01
          0                13           1             5    6     1       0.9995190681E-04       5    6    1         0.5723968090E-02      0.1013048682E-01

    ------------------------------------------------
       NWT REQUIRED           13 OUTER ITERATIONS 
       AND A TOTAL OF         25 INNER ITERATIONS.
    ------------------------------------------------

 NO OUTPUT CONTROL FOR STRESS PERIOD   19   TIME STEP    8
 
 SOLVING FOR HEAD 
                                                   Max.-Head-Change                         Max.-Flux-Residual
  Residual-Control   Outer-Iter.   Inner-Iter.     Column Row Layer    Maximum-Head-Change  Column Row Layer    Maximum-Flux-Residual          L2-NORM 
          0                 1           2             4    7     1       0.4112881291E+00       4    7    1         0.2165260957E+02      0.4251404376E+02
          0                 2           2             4    7     1       0.1911452624E+00       4    7    1         0.1006839918E+02      0.1909180413E+02
          0                 3           2             5    8     1      -0.4839336970E-01       5    8    1        -0.2752861281E+01      0.3136393071E+01
          0                 4           2             4    7     1       0.8080076627E-01       4    7    1         0.4242220321E+01      0.8958502059E+01
          0                 5           2             4    7     1       0.3878177966E-01       4    7    1         0.2037822124E+01      0.4268373913E+01
          0                 6           2             4    7     1       0.1859856609E-01       4    7    1         0.9779834432E+00      0.2036542069E+01
          0                 7           2             4    7     1       0.8912686162E-02       4    7    1         0.4689673260E+00      0.9728646411E+00
          0                 8           2             4    7     1       0.4268279474E-02       4    7    1         0.2247170740E+00      0.4652799929E+00
          0                 9           2             4    7     1       0.2042897530E-02       5    6    1         0.1092566440E+00      0.2227668461E+00
          0                10           2             4    7     1       0.9772845510E-03       5    6    1         0.5419455652E-01      0.1067660594E+00
                                                   Max.-Head-Change                         Max.-Flux-Residual
  Residual-Control   Outer-Iter.   Inner-Iter.     Column Row Layer    Maximum-Head-Change  Column Row Layer    Maximum-Flux-Residual          L2-NORM 
          0                11           2             5    6     1       0.4700997202E-03       5    6    1         0.2684727426E-01      0.5121953225E-01
          0                12           2             5    6     1       0.2323991988E-03       5    6    1         0.1328402695E-01      0.2459416442E-01
          0                13           2             5    6     1       0.1147727314E-03       5    6    1         0.6565791161E-02      0.1181947148E-01
          0                14           1             5    6     1       0.5662872464E-04       5    6    1         0.3241978714E-02      0.5684734025E-02

    ------------------------------------------------
       NWT REQUIRED           14 OUTER ITERATIONS 
       AND A TOTAL OF         27 INNER ITERATIONS.
    ------------------------------------------------

 NO OUTPUT CONTROL FOR STRESS PERIOD   19   TIME STEP    9
 
 SOLVING FOR HEAD 
                                                   Max.-Head-Change                         Max.-Flux-Residual
  Residual-Control   Outer-Iter.   Inner-Iter.     Column Row Layer    Maximum-Head-Change  Column Row Layer    Maximum-Flux-Residual          L2-NORM 
          0                 1           2             4    7     1       0.3646397865E+00       4    7    1         0.1940389357E+02      0.3427843885E+02
          0                 2           2             4    6     1       0.1565485398E+00       4    6    1         0.8355576442E+01      0.1407281515E+02
          0                 3           2             5    8     1      -0.5028081383E-01       5    8    1        -0.2788402778E+01      0.4575422638E+01
          0                 4           2             4    6     1       0.7182236710E-01       4    6    1         0.3820684130E+01      0.7684803780E+01
          0                 5           2             4    6     1       0.3387180337E-01       4    6    1         0.1803009732E+01      0.3559735885E+01
          0                 6           2             4    6     1       0.1596326687E-01       4    6    1         0.8502651867E+00      0.1649575957E+01
          0                 7           2             4    6     1       0.7518527922E-02       4    6    1         0.4006961673E+00      0.7646471312E+00
          0                 8           2             4    6     1       0.3539091821E-02       4    6    1         0.1887144471E+00      0.3545473931E+00
          0                 9           2             4    6     1       0.1665011253E-02       4    6    1         0.8882689834E-01      0.1644380309E+00
          0                10           2             4    6     1       0.7829345180E-03       4    6    1         0.4178799508E-01      0.7628448094E-01
                                                   Max.-Head-Change                         Max.-Flux-Residual
  Residual-Control   Outer-Iter.   Inner-Iter.     Column Row Layer    Maximum-Head-Change  Column Row Layer    Maximum-Flux-Residual          L2-NORM 
          0                11           2             4    6     1       0.3679863266E-03       4    6    1         0.1964910443E-01      0.3539713409E-01
          0                12           2             4    6     1       0.1728819179E-03       4    6    1         0.9234919678E-02      0.1642822882E-01
          0                13           1             4    6     1       0.8118804305E-04       4    6    1         0.4338466041E-02      0.7626012404E-02

    ------------------------------------------------
       NWT REQUIRED           13 OUTER ITERATIONS 
       AND A TOTAL OF         25 INNER ITERATIONS.
    ------------------------------------------------

 NO OUTPUT CONTROL FOR STRESS PERIOD   19   TIME STEP   10
 
 SOLVING FOR HEAD 
                                                   Max.-Head-Change                         Max.-Flux-Residual
  Residual-Control   Outer-Iter.   Inner-Iter.     Column Row Layer    Maximum-Head-Change  Column Row Layer    Maximum-Flux-Residual          L2-NORM 
          0                 1           2             4    6     1       0.2572011082E+00       4    6    1         0.1372909841E+02      0.2509377625E+02
          0                 2           2             4    6     1       0.1082897519E+00       4    6    1         0.5831206422E+01      0.9083979613E+01
          0                 3           2             5    6     1      -0.5295102084E-01       5    6    1        -0.2954621071E+01      0.5870534002E+01
          0                 4           2             4    6     1       0.5612473872E-01       4    6    1         0.3156393670E+01      0.6713196149E+01
          0                 5           2             4    6     1       0.2566329941E-01       4    6    1         0.1442967158E+01      0.3079890306E+01
          0                 6           2             4    6     1       0.1173697598E-01       4    6    1         0.6598044103E+00      0.1413312130E+01
          0                 7           2             4    6     1       0.5368866410E-02       4    6    1         0.3017573507E+00      0.6486427852E+00
          0                 8           2             4    7     1       0.2473685041E-02       4    6    1         0.1380328984E+00      0.2977369971E+00
          0                 9           2             4    7     1       0.1148270995E-02       4    7    1         0.6367533059E-01      0.1366829469E+00
          0                10           2             4    7     1       0.5327733699E-03       4    7    1         0.2955598638E-01      0.6275455699E-01
                                                   Max.-Head-Change                         Max.-Flux-Residual
  Residual-Control   Outer-Iter.   Inner-Iter.     Column Row Layer    Maximum-Head-Change  Column Row Layer    Maximum-Flux-Residual          L2-NORM 
          0                11           2             4    7     1       0.2470865053E-03       4    7    1         0.1371256452E-01      0.2881516279E-01
          0                12           2             4    7     1       0.1145443334E-03       4    7    1         0.6359180078E-02      0.1323236904E-01
          0                13           1             4    7     1       0.5307931882E-04       4    7    1         0.2947829703E-02      0.6077025217E-02

    ------------------------------------------------
       NWT REQUIRED           13 OUTER ITERATIONS 
       AND A TOTAL OF         25 INNER ITERATIONS.
    ------------------------------------------------

 NO OUTPUT CONTROL FOR STRESS PERIOD   19   TIME STEP   11
 
 SOLVING FOR HEAD 
                                                   Max.-Head-Change                         Max.-Flux-Residual
  Residual-Control   Outer-Iter.   Inner-Iter.     Column Row Layer    Maximum-Head-Change  Column Row Layer    Maximum-Flux-Residual          L2-NORM 
          0                 1           2             4    7     1       0.1930192307E+00       4    7    1         0.1022310235E+02      0.2156579402E+02
          0                 2           2             4    7     1       0.8258640899E-01       4    7    1         0.4384145977E+01      0.7226855489E+01
          0                 3           2             5    8     1      -0.5477173750E-01       5    8    1        -0.3034699470E+01      0.6423475559E+01
          0                 4           2             4    7     1       0.5207329756E-01       4    7    1         0.2886503908E+01      0.6407423581E+01
          0                 5           2             4    7     1       0.2417492048E-01       4    7    1         0.1340530121E+01      0.2934913895E+01
          0                 6           2             4    7     1       0.1121867432E-01       4    7    1         0.6223064233E+00      0.1344810557E+01
          0                 7           2             4    7     1       0.5204143162E-02       4    7    1         0.2887742163E+00      0.6163665474E+00
          0                 8           2             4    7     1       0.2413198101E-02       4    7    1         0.1339503921E+00      0.2825649718E+00
          0                 9           2             4    7     1       0.1118607384E-02       4    7    1         0.6211062809E-01      0.1295651761E+00
          0                10           2             4    7     1       0.5183323538E-03       4    7    1         0.2878917212E-01      0.5942093860E-01
                                                   Max.-Head-Change                         Max.-Flux-Residual
  Residual-Control   Outer-Iter.   Inner-Iter.     Column Row Layer    Maximum-Head-Change  Column Row Layer    Maximum-Flux-Residual          L2-NORM 
          0                11           2             4    7     1       0.2400987240E-03       4    7    1         0.1333947505E-01      0.2725608649E-01
          0                12           1             4    7     1       0.1111801425E-03       4    7    1         0.6178735218E-02      0.1250410669E-01
          0                13           1             4    7     1       0.5146658238E-04       4    7    1         0.2860992116E-02      0.5737202996E-02

    ------------------------------------------------
       NWT REQUIRED           13 OUTER ITERATIONS 
       AND A TOTAL OF         24 INNER ITERATIONS.
    ------------------------------------------------

 NO OUTPUT CONTROL FOR STRESS PERIOD   19   TIME STEP   12
 
 SOLVING FOR HEAD 
                                                   Max.-Head-Change                         Max.-Flux-Residual
  Residual-Control   Outer-Iter.   Inner-Iter.     Column Row Layer    Maximum-Head-Change  Column Row Layer    Maximum-Flux-Residual          L2-NORM 
          0                 1           2             4    7     1       0.1853537380E+00       4    7    1         0.9818225240E+01      0.2077086322E+02
          0                 2           2             4    7     1       0.7902717885E-01       4    7    1         0.4197144304E+01      0.6761343918E+01
          0                 3           2             5    8     1      -0.5830490107E-01       5    8    1        -0.3230926750E+01      0.6662747512E+01
          0                 4           2             4    7     1       0.5140743991E-01       4    7    1         0.2849739090E+01      0.6325010678E+01
          0                 5           2             4    7     1       0.2379589432E-01       4    7    1         0.1319840911E+01      0.2876939269E+01
          0                 6           2             4    7     1       0.1100824973E-01       4    7    1         0.6108965881E+00      0.1309322512E+01
          0                 7           2             4    7     1       0.5089637357E-02       4    7    1         0.2825885499E+00      0.5961528364E+00
          0                 8           2             4    7     1       0.2351902812E-02       4    7    1         0.1306455369E+00      0.2715467318E+00
          0                 9           2             4    7     1       0.1086243065E-02       4    7    1         0.6036697510E-01      0.1237340851E+00
          0                10           2             4    7     1       0.5014416880E-03       4    7    1         0.2787919424E-01      0.5639955865E-01
                                                   Max.-Head-Change                         Max.-Flux-Residual
  Residual-Control   Outer-Iter.   Inner-Iter.     Column Row Layer    Maximum-Head-Change  Column Row Layer    Maximum-Flux-Residual          L2-NORM 
          0                11           2             4    7     1       0.2313714751E-03       4    7    1         0.1286908379E-01      0.2571515291E-01
          0                12           1             4    7     1       0.1067099395E-03       4    7    1         0.5937611825E-02      0.1172780041E-01
          0                13           1             4    7     1       0.4919431021E-04       4    7    1         0.2738308826E-02      0.5349909463E-02

    ------------------------------------------------
       NWT REQUIRED           13 OUTER ITERATIONS 
       AND A TOTAL OF         24 INNER ITERATIONS.
    ------------------------------------------------

 NO OUTPUT CONTROL FOR STRESS PERIOD   19   TIME STEP   13
 
 SOLVING FOR HEAD 
                                                   Max.-Head-Change                         Max.-Flux-Residual
  Residual-Control   Outer-Iter.   Inner-Iter.     Column Row Layer    Maximum-Head-Change  Column Row Layer    Maximum-Flux-Residual          L2-NORM 
          0                 1           2             4    7     1       0.1637600640E+00       4    7    1         0.8675970182E+01      0.1930970087E+02
          0                 2           2             4    7     1       0.6852294128E-01       4    7    1         0.3640607407E+01      0.5872873903E+01
          0                 3           2             5    8     1      -0.6076623384E-01       5    8    1        -0.3363555298E+01      0.7058481388E+01
          0                 4           2             4    7     1       0.4961931399E-01       4    7    1         0.2749369074E+01      0.6177671477E+01
          0                 5           2             4    7     1       0.2261598662E-01       4    7    1         0.1253555371E+01      0.2777297814E+01
          0                 6           2             4    7     1       0.1030426409E-01       4    7    1         0.5713291267E+00      0.1249406253E+01
          0                 7           2             4    7     1       0.4693114577E-02       4    7    1         0.2602950399E+00      0.5623629814E+00
          0                 8           2             4    7     1       0.2136752432E-02       4    7    1         0.1185464412E+00      0.2532462158E+00
          0                 9           2             4    7     1       0.9725283612E-03       4    7    1         0.5397099855E-01      0.1140944510E+00
          0                10           2             4    7     1       0.4424981574E-03       4    7    1         0.2456336556E-01      0.5142392256E-01
                                                   Max.-Head-Change                         Max.-Flux-Residual
  Residual-Control   Outer-Iter.   Inner-Iter.     Column Row Layer    Maximum-Head-Change  Column Row Layer    Maximum-Flux-Residual          L2-NORM 
          0                11           2             4    7     1       0.2012740607E-03       4    7    1         0.1117575555E-01      0.2318623240E-01
          0                12           1             4    7     1       0.9152447072E-04       4    7    1         0.5083157300E-02      0.1045795406E-01

    ------------------------------------------------
       NWT REQUIRED           12 OUTER ITERATIONS 
       AND A TOTAL OF         23 INNER ITERATIONS.
    ------------------------------------------------

 NO OUTPUT CONTROL FOR STRESS PERIOD   19   TIME STEP   14
 
 SOLVING FOR HEAD 
                                                   Max.-Head-Change                         Max.-Flux-Residual
  Residual-Control   Outer-Iter.   Inner-Iter.     Column Row Layer    Maximum-Head-Change  Column Row Layer    Maximum-Flux-Residual          L2-NORM 
          0                 1           2             4    7     1       0.1384935553E+00       4    7    1         0.7333464383E+01      0.1778715901E+02
          0                 2           2             4    7     1       0.5741056397E-01       4    7    1         0.3050788937E+01      0.4943145670E+01
          0                 3           2             5    8     1      -0.6277148427E-01       5    8    1        -0.3471839480E+01      0.7466982517E+01
          0                 4           2             4    7     1       0.4778948802E-01       4    7    1         0.2646486935E+01      0.6029491679E+01
          0                 5           2             4    7     1       0.2161512713E-01       4    7    1         0.1197551553E+01      0.2680484444E+01
          0                 6           2             4    7     1       0.9771555447E-02       4    7    1         0.5416174451E+00      0.1192517943E+01
          0                 7           2             4    7     1       0.4415285125E-02       4    7    1         0.2448340479E+00      0.5308572187E+00
          0                 8           2             4    7     1       0.1994121304E-02       4    7    1         0.1106217998E+00      0.2364442264E+00
          0                 9           2             4    7     1       0.9002241820E-03       4    7    1         0.4995834375E-01      0.1053649430E+00
          0                10           2             4    7     1       0.4062229233E-03       4    7    1         0.2255185607E-01      0.4697430726E-01
                                                   Max.-Head-Change                         Max.-Flux-Residual
  Residual-Control   Outer-Iter.   Inner-Iter.     Column Row Layer    Maximum-Head-Change  Column Row Layer    Maximum-Flux-Residual          L2-NORM 
          0                11           2             4    7     1       0.1832318695E-03       4    7    1         0.1017587748E-01      0.2095094896E-01
          0                12           1             4    7     1       0.8261680651E-04       4    7    1         0.4589706788E-02      0.9347816796E-02

    ------------------------------------------------
       NWT REQUIRED           12 OUTER ITERATIONS 
       AND A TOTAL OF         23 INNER ITERATIONS.
    ------------------------------------------------

 NO OUTPUT CONTROL FOR STRESS PERIOD   19   TIME STEP   15
 
 SOLVING FOR HEAD 
                                                   Max.-Head-Change                         Max.-Flux-Residual
  Residual-Control   Outer-Iter.   Inner-Iter.     Column Row Layer    Maximum-Head-Change  Column Row Layer    Maximum-Flux-Residual          L2-NORM 
          0                 1           2             4    7     1       0.1178044162E+00       4    7    1         0.6243156402E+01      0.1643321448E+02
          0                 2           2             4    7     1       0.4822029613E-01       4    7    1         0.2566232849E+01      0.4090903494E+01
          0                 3           2             5    8     1      -0.6426587735E-01       5    8    1        -0.3552150902E+01      0.7831122072E+01
          0                 4           2             4    7     1       0.4634451822E-01       4    7    1         0.2565728077E+01      0.5901509961E+01
          0                 5           2             4    7     1       0.2076686952E-01       4    7    1         0.1150242635E+01      0.2595958656E+01
          0                 6           2             4    7     1       0.9300719559E-02       4    7    1         0.5153878754E+00      0.1142954824E+01
          0                 7           2             4    7     1       0.4163362833E-02       4    7    1         0.2308086576E+00      0.5036060905E+00
          0                 8           2             4    7     1       0.1862788294E-02       4    7    1         0.1033124952E+00      0.2220516686E+00
          0                 9           2             4    7     1       0.8330738639E-03       4    7    1         0.4622169220E-01      0.9796945196E-01
          0                10           2             4    7     1       0.3724031813E-03       4    7    1         0.2066999324E-01      0.4324899501E-01
                                                   Max.-Head-Change                         Max.-Flux-Residual
  Residual-Control   Outer-Iter.   Inner-Iter.     Column Row Layer    Maximum-Head-Change  Column Row Layer    Maximum-Flux-Residual          L2-NORM 
          0                11           2             4    7     1       0.1664033314E-03       4    7    1         0.9239435270E-02      0.1910238464E-01
          0                12           1             4    7     1       0.7432554200E-04       4    7    1         0.4128288207E-02      0.8441217127E-02

    ------------------------------------------------
       NWT REQUIRED           12 OUTER ITERATIONS 
       AND A TOTAL OF         23 INNER ITERATIONS.
    ------------------------------------------------

 NO OUTPUT CONTROL FOR STRESS PERIOD   19   TIME STEP   16
 
 SOLVING FOR HEAD 
                                                   Max.-Head-Change                         Max.-Flux-Residual
  Residual-Control   Outer-Iter.   Inner-Iter.     Column Row Layer    Maximum-Head-Change  Column Row Layer    Maximum-Flux-Residual          L2-NORM 
          0                 1           2             4    5     1       0.1112902673E+00       4    5    1         0.5933243591E+01      0.1532248681E+02
          0                 2           2             4    7     1       0.3980130304E-01       4    7    1         0.2121449996E+01      0.3364507952E+01
          0                 3           2             5    8     1      -0.6517197525E-01       5    8    1        -0.3599878781E+01      0.8135922392E+01
          0                 4           2             4    7     1       0.4512561345E-01       4    7    1         0.2497253362E+01      0.5803802485E+01
          0                 5           2             4    7     1       0.2000274548E-01       4    7    1         0.1107645540E+01      0.2523876723E+01
          0                 6           2             4    7     1       0.8860612984E-02       4    7    1         0.4909451552E+00      0.1098223561E+01
          0                 7           2             4    7     1       0.3922487074E-02       4    7    1         0.2174571891E+00      0.4781117559E+00
          0                 8           2             4    7     1       0.1735393141E-02       4    7    1         0.9625856323E-01      0.2082420763E+00
          0                 9           2             4    7     1       0.7673384771E-03       4    7    1         0.4258383469E-01      0.9073867482E-01
          0                10           2             4    7     1       0.3391112103E-03       4    7    1         0.1882799391E-01      0.3955368377E-01
                                                   Max.-Head-Change                         Max.-Flux-Residual
  Residual-Control   Outer-Iter.   Inner-Iter.     Column Row Layer    Maximum-Head-Change  Column Row Layer    Maximum-Flux-Residual          L2-NORM 
          0                11           2             4    7     1       0.1497876306E-03       4    7    1         0.8320137340E-02      0.1724799824E-01
          0                12           1             4    7     1       0.6613026109E-04       4    7    1         0.3674824588E-02      0.7523768067E-02

    ------------------------------------------------
       NWT REQUIRED           12 OUTER ITERATIONS 
       AND A TOTAL OF         23 INNER ITERATIONS.
    ------------------------------------------------

 NO OUTPUT CONTROL FOR STRESS PERIOD   19   TIME STEP   17
 
 SOLVING FOR HEAD 
                                                   Max.-Head-Change                         Max.-Flux-Residual
  Residual-Control   Outer-Iter.   Inner-Iter.     Column Row Layer    Maximum-Head-Change  Column Row Layer    Maximum-Flux-Residual          L2-NORM 
          0                 1           2             4    5     1       0.1091491855E+00       4    5    1         0.5827770673E+01      0.1446190221E+02
          0                 2           2             4    7     1       0.3272890817E-01       4    7    1         0.1746254384E+01      0.2805695331E+01
          0                 3           2             5    8     1      -0.6677273500E-01       5    8    1        -0.3687928153E+01      0.8389836319E+01
          0                 4           2             4    7     1       0.4422690814E-01       4    7    1         0.2446525256E+01      0.5743336405E+01
          0                 5           2             4    7     1       0.1936538138E-01       4    7    1         0.1071970746E+01      0.2463857637E+01
          0                 6           2             4    7     1       0.8473264072E-02       4    7    1         0.4693378509E+00      0.1057736723E+01
          0                 7           2             4    7     1       0.3704919802E-02       4    7    1         0.2053404961E+00      0.4543554366E+00
          0                 8           2             4    7     1       0.1618927163E-02       4    7    1         0.8977769371E-01      0.1952771970E+00
          0                 9           2             4    7     1       0.7069883077E-03       4    7    1         0.3922690855E-01      0.8397050684E-01
          0                10           2             4    7     1       0.3085663676E-03       4    7    1         0.1712921495E-01      0.3612472791E-01
                                                   Max.-Head-Change                         Max.-Flux-Residual
  Residual-Control   Outer-Iter.   Inner-Iter.     Column Row Layer    Maximum-Head-Change  Column Row Layer    Maximum-Flux-Residual          L2-NORM 
          0                11           2             4    7     1       0.1346016796E-03       4    7    1         0.7475556353E-02      0.1554781190E-01
          0                12           1             4    7     1       0.5868554562E-04       4    7    1         0.3260740899E-02      0.6694317463E-02

    ------------------------------------------------
       NWT REQUIRED           12 OUTER ITERATIONS 
       AND A TOTAL OF         23 INNER ITERATIONS.
    ------------------------------------------------

 NO OUTPUT CONTROL FOR STRESS PERIOD   19   TIME STEP   18
 
 SOLVING FOR HEAD 
                                                   Max.-Head-Change                         Max.-Flux-Residual
  Residual-Control   Outer-Iter.   Inner-Iter.     Column Row Layer    Maximum-Head-Change  Column Row Layer    Maximum-Flux-Residual          L2-NORM 
          0                 1           2             4    5     1       0.1067359636E+00       4    5    1         0.5707204048E+01      0.1373146165E+02
          0                 2           2             4    7     1       0.2728433825E-01       4    7    1         0.1459355959E+01      0.2355104221E+01
          0                 3           2             5    8     1      -0.6690828079E-01       5    8    1        -0.3693062577E+01      0.8577284109E+01
          0                 4           2             4    7     1       0.4364660128E-01       4    7    1         0.2414721188E+01      0.5681930455E+01
          0                 5           2             4    7     1       0.1884918326E-01       4    7    1         0.1042918750E+01      0.2423796588E+01
          0                 6           2             4    7     1       0.8139038788E-02       4    7    1         0.4503800726E+00      0.1034964616E+01
          0                 7           2             4    7     1       0.3513889778E-02       4    6    1         0.1945287265E+00      0.4422895861E+00
          0                 8           2             4    7     1       0.1516822632E-02       4    6    1         0.8501604838E-01      0.1891483597E+00
          0                 9           2             4    6     1       0.6614780317E-03       4    6    1         0.3713562588E-01      0.8094302483E-01
          0                10           2             4    6     1       0.2886762419E-03       4    6    1         0.1621305387E-01      0.3465833934E-01
                                                   Max.-Head-Change                         Max.-Flux-Residual
  Residual-Control   Outer-Iter.   Inner-Iter.     Column Row Layer    Maximum-Head-Change  Column Row Layer    Maximum-Flux-Residual          L2-NORM 
          0                11           2             4    6     1       0.1259245775E-03       4    6    1         0.7075119339E-02      0.1484778263E-01
          0                12           1             4    6     1       0.5490646560E-04       4    6    1         0.3086081356E-02      0.6363824809E-02

    ------------------------------------------------
       NWT REQUIRED           12 OUTER ITERATIONS 
       AND A TOTAL OF         23 INNER ITERATIONS.
    ------------------------------------------------

 NO OUTPUT CONTROL FOR STRESS PERIOD   19   TIME STEP   19
 
 SOLVING FOR HEAD 
                                                   Max.-Head-Change                         Max.-Flux-Residual
  Residual-Control   Outer-Iter.   Inner-Iter.     Column Row Layer    Maximum-Head-Change  Column Row Layer    Maximum-Flux-Residual          L2-NORM 
          0                 1           2             4    5     1       0.1041029157E+00       4    5    1         0.5573707937E+01      0.1312032154E+02
          0                 2           2             4    7     1       0.2289891734E-01       4    7    1         0.1229131237E+01      0.1991013185E+01
          0                 3           2             5    8     1      -0.6994749945E-01       5    8    1        -0.3755042724E+01      0.8768568935E+01
          0                 4           2             4    7     1       0.4297591451E-01       4    7    1         0.2376642006E+01      0.5665556216E+01
          0                 5           2             4    7     1       0.1855677980E-01       4    7    1         0.1026932908E+01      0.2377188270E+01
          0                 6           2             4    7     1       0.8006632155E-02       4    7    1         0.4433855330E+00      0.9996992059E+00
          0                 7           2             4    7     1       0.3452069305E-02       4    7    1         0.1912895540E+00      0.4211908284E+00
          0                 8           2             4    7     1       0.1487321467E-02       4    7    1         0.8246778758E-01      0.1777347962E+00
          0                 9           2             4    7     1       0.6403827855E-03       4    7    1         0.3552828342E-01      0.7510127863E-01
          0                10           2             4    7     1       0.2755483525E-03       4    7    1         0.1529588873E-01      0.3177000261E-01
                                                   Max.-Head-Change                         Max.-Flux-Residual
  Residual-Control   Outer-Iter.   Inner-Iter.     Column Row Layer    Maximum-Head-Change  Column Row Layer    Maximum-Flux-Residual          L2-NORM 
          0                11           2             4    7     1       0.1184931406E-03       4    7    1         0.6581119021E-02      0.1345271437E-01
          0                12           1             4    7     1       0.5092599097E-04       4    7    1         0.2829848437E-02      0.5701181863E-02

    ------------------------------------------------
       NWT REQUIRED           12 OUTER ITERATIONS 
       AND A TOTAL OF         23 INNER ITERATIONS.
    ------------------------------------------------

 NO OUTPUT CONTROL FOR STRESS PERIOD   19   TIME STEP   20
 
 SOLVING FOR HEAD 
                                                   Max.-Head-Change                         Max.-Flux-Residual
  Residual-Control   Outer-Iter.   Inner-Iter.     Column Row Layer    Maximum-Head-Change  Column Row Layer    Maximum-Flux-Residual          L2-NORM 
          0                 1           2             4    5     1       0.1013525178E+00       4    5    1         0.5429284882E+01      0.1258017845E+02
          0                 2           2             4    7     1       0.1710321262E-01       4    7    1         0.9171877370E+00      0.1710312911E+01
          0                 3           2             5    8     1      -0.6773183681E-01       5    8    1        -0.3736458615E+01      0.8858657691E+01
          0                 4           2             4    7     1       0.4249795407E-01       4    7    1         0.2349465256E+01      0.5623439351E+01
          0                 5           2             4    7     1       0.1807431456E-01       4    7    1         0.9995040095E+00      0.2362331963E+01
          0                 6           2             4    7     1       0.7684402605E-02       4    7    1         0.4250665709E+00      0.9900969095E+00
          0                 7           2             4    7     1       0.3265976530E-02       4    7    1         0.1807104601E+00      0.4152976075E+00
          0                 8           2             4    7     1       0.1387624287E-02       4    7    1         0.7680053443E-01      0.1743180319E+00
          0                 9           2             4    7     1       0.5893708330E-03       4    7    1         0.3262880240E-01      0.7321286225E-01
          0                10           2             4    7     1       0.2502453297E-03       4    7    1         0.1385785763E-01      0.3076528202E-01
                                                   Max.-Head-Change                         Max.-Flux-Residual
  Residual-Control   Outer-Iter.   Inner-Iter.     Column Row Layer    Maximum-Head-Change  Column Row Layer    Maximum-Flux-Residual          L2-NORM 
          0                11           1             4    7     1       0.1062201993E-03       4    7    1         0.5883718342E-02      0.1293402284E-01
          0                12           1             4    7     1       0.4507291148E-04       4    7    1         0.2497305722E-02      0.5439766373E-02

    ------------------------------------------------
       NWT REQUIRED           12 OUTER ITERATIONS 
       AND A TOTAL OF         22 INNER ITERATIONS.
    ------------------------------------------------

 NO OUTPUT CONTROL FOR STRESS PERIOD   19   TIME STEP   21
 
 SOLVING FOR HEAD 
                                                   Max.-Head-Change                         Max.-Flux-Residual
  Residual-Control   Outer-Iter.   Inner-Iter.     Column Row Layer    Maximum-Head-Change  Column Row Layer    Maximum-Flux-Residual          L2-NORM 
          0                 1           2             4    5     1       0.9849367615E-01       4    5    1         0.5282533462E+01      0.1216672700E+02
          0                 2           2             4    7     1       0.1511947681E-01       4    7    1         0.8169649893E+00      0.1525230446E+01
          0                 3           2             5    8     1      -0.7101339950E-01       5    8    1        -0.3810778800E+01      0.9027021660E+01
          0                 4           2             5    8     1       0.4278200219E-01       5    8    1         0.2359534941E+01      0.5649457060E+01
          0                 5           2             4    7     1       0.1793561273E-01       4    7    1         0.9921770848E+00      0.2314202426E+01
          0                 6           2             4    7     1       0.7619252049E-02       4    7    1         0.4217905671E+00      0.9508393390E+00
          0                 7           2             4    7     1       0.3234176816E-02       4    7    1         0.1791649251E+00      0.3916640414E+00
          0                 8           2             4    7     1       0.1371764485E-02       4    7    1         0.7604399370E-01      0.1616871680E+00
          0                 9           2             4    7     1       0.5813939701E-03       4    7    1         0.3225090840E-01      0.6687492757E-01
          0                10           2             4    7     1       0.2462343563E-03       4    7    1         0.1366768839E-01      0.2770542546E-01
                                                   Max.-Head-Change                         Max.-Flux-Residual
  Residual-Control   Outer-Iter.   Inner-Iter.     Column Row Layer    Maximum-Head-Change  Column Row Layer    Maximum-Flux-Residual          L2-NORM 
          0                11           1             4    7     1       0.1042141500E-03       4    7    1         0.5788104570E-02      0.1149432023E-01
          0                12           1             4    7     1       0.4407759122E-04       4    7    1         0.2449506988E-02      0.4774585741E-02

    ------------------------------------------------
       NWT REQUIRED           12 OUTER ITERATIONS 
       AND A TOTAL OF         22 INNER ITERATIONS.
    ------------------------------------------------

 NO OUTPUT CONTROL FOR STRESS PERIOD   19   TIME STEP   22
 
 SOLVING FOR HEAD 
                                                   Max.-Head-Change                         Max.-Flux-Residual
  Residual-Control   Outer-Iter.   Inner-Iter.     Column Row Layer    Maximum-Head-Change  Column Row Layer    Maximum-Flux-Residual          L2-NORM 
          0                 1           2             4    5     1       0.9557729406E-01       4    5    1         0.5127944591E+01      0.1169874053E+02
          0                 2           2             4    7     1       0.1003687803E-01       4    7    1         0.5429730415E+00      0.1325676482E+01
          0                 3           2             5    8     1      -0.7066956443E-01       5    8    1        -0.3790857008E+01      0.9088833525E+01
          0                 4           2             5    8     1       0.4289268980E-01       5    8    1         0.2366139738E+01      0.5643992219E+01
          0                 5           2             4    7     1       0.1752168705E-01       4    7    1         0.9686001859E+00      0.2297903744E+01
          0                 6           2             4    7     1       0.7322028548E-02       4    7    1         0.4048704608E+00      0.9377303614E+00
          0                 7           2             4    7     1       0.3058705888E-02       4    7    1         0.1691804025E+00      0.3833871251E+00
          0                 8           2             4    7     1       0.1277276787E-02       4    7    1         0.7066974886E-01      0.1569959231E+00
          0                 9           2             4    7     1       0.5331712382E-03       4    7    1         0.2950917993E-01      0.6437600927E-01
          0                10           2             4    7     1       0.2224737717E-03       4    6    1         0.1232071110E-01      0.2642738613E-01
          0                11           1             4    7     1       0.9279391374E-04       4    6    1         0.5149815368E-02      0.1085931806E-01

    ------------------------------------------------
       NWT REQUIRED           11 OUTER ITERATIONS 
       AND A TOTAL OF         21 INNER ITERATIONS.
    ------------------------------------------------

 NO OUTPUT CONTROL FOR STRESS PERIOD   19   TIME STEP   23
 
 SOLVING FOR HEAD 
                                                   Max.-Head-Change                         Max.-Flux-Residual
  Residual-Control   Outer-Iter.   Inner-Iter.     Column Row Layer    Maximum-Head-Change  Column Row Layer    Maximum-Flux-Residual          L2-NORM 
          0                 1           2             4    5     1       0.9252398107E-01       4    5    1         0.4971835053E+01      0.1135304598E+02
          0                 2           2             4    5     1      -0.8967552194E-02       4    5    1        -0.4971972665E+00      0.1244739674E+01
          0                 3           2             5    6     1      -0.7102050458E-01       5    6    1        -0.3816438470E+01      0.9164986856E+01
          0                 4           2             5    8     1       0.4345535394E-01       5    8    1         0.2397803798E+01      0.5652551147E+01
          0                 5           2             4    7     1       0.1741922883E-01       4    7    1         0.9630119155E+00      0.2277686570E+01
          0                 6           2             4    7     1       0.7276606225E-02       4    7    1         0.4024998823E+00      0.9210806232E+00
          0                 7           2             4    7     1       0.3037786214E-02       4    7    1         0.1681251157E+00      0.3735769970E+00
          0                 8           2             4    7     1       0.1267396068E-02       4    7    1         0.7018224361E-01      0.1518941746E+00
          0                 9           2             4    7     1       0.5284404014E-03       4    7    1         0.2927848074E-01      0.6188806934E-01
          0                10           2             4    7     1       0.2201974980E-03       4    7    1         0.1220670560E-01      0.2525984919E-01
          0                11           1             4    7     1       0.9169962270E-04       4    7    1         0.5086059945E-02      0.1032498889E-01

    ------------------------------------------------
       NWT REQUIRED           11 OUTER ITERATIONS 
       AND A TOTAL OF         21 INNER ITERATIONS.
    ------------------------------------------------

 NO OUTPUT CONTROL FOR STRESS PERIOD   19   TIME STEP   24
 
 SOLVING FOR HEAD 
                                                   Max.-Head-Change                         Max.-Flux-Residual
  Residual-Control   Outer-Iter.   Inner-Iter.     Column Row Layer    Maximum-Head-Change  Column Row Layer    Maximum-Flux-Residual          L2-NORM 
          0                 1           2             4    5     1       0.8955824951E-01       4    5    1         0.4810327494E+01      0.1104141748E+02
          0                 2           2             4    5     1      -0.8669975296E-02       4    5    1        -0.4810459782E+00      0.1210044035E+01
          0                 3           2             5    7     1      -0.7177009243E-01       5    8    1        -0.3840709535E+01      0.9247095877E+01
          0                 4           2             4    8     1       0.4318562790E-01       5    8    1         0.2378643736E+01      0.5698075822E+01
          0                 5           2             4    7     1       0.1719890186E-01       4    7    1         0.9510670488E+00      0.2249728601E+01
          0                 6           2             4    6     1       0.7076662794E-02       4    6    1         0.3971138590E+00      0.8910247728E+00
          0                 7           2             4    6     1       0.2960705184E-02       4    6    1         0.1663366928E+00      0.3539206648E+00
          0                 8           2             4    6     1       0.1237118264E-02       4    6    1         0.6957751750E-01      0.1409682029E+00
          0                 9           2             4    6     1       0.5163214700E-03       4    6    1         0.2906736281E-01      0.5629498673E-01
          0                10           2             4    6     1       0.2152588549E-03       4    6    1         0.1212944798E-01      0.2253626421E-01
          0                11           1             4    6     1       0.8965391071E-04       4    6    1         0.5056075039E-02      0.9042438763E-02

    ------------------------------------------------
       NWT REQUIRED           11 OUTER ITERATIONS 
       AND A TOTAL OF         21 INNER ITERATIONS.
    ------------------------------------------------

 NO OUTPUT CONTROL FOR STRESS PERIOD   19   TIME STEP   25
 
 SOLVING FOR HEAD 
                                                   Max.-Head-Change                         Max.-Flux-Residual
  Residual-Control   Outer-Iter.   Inner-Iter.     Column Row Layer    Maximum-Head-Change  Column Row Layer    Maximum-Flux-Residual          L2-NORM 
          0                 1           2             4    5     1       0.8653933378E-01       4    5    1         0.4656979735E+01      0.1066493613E+02
          0                 2           2             4    5     1      -0.8460420546E-02       4    5    1        -0.4657082402E+00      0.1110774285E+01
          0                 3           2             5    7     1      -0.7170737135E-01       5    8    1        -0.3822224630E+01      0.9297506136E+01
          0                 4           2             5    8     1       0.4326268127E-01       5    8    1         0.2385027704E+01      0.5725420924E+01
          0                 5           2             4    7     1       0.1699502131E-01       4    7    1         0.9397714370E+00      0.2232078011E+01
          0                 6           2             4    7     1       0.6971421185E-02       4    7    1         0.3862882681E+00      0.8710841409E+00
          0                 7           2             4    7     1       0.2853353730E-02       4    7    1         0.1583976609E+00      0.3405182511E+00
          0                 8           2             4    7     1       0.1165505499E-02       4    7    1         0.6480895112E-01      0.1333245453E+00
          0                 9           2             4    7     1       0.4751997963E-03       4    7    1         0.2646416392E-01      0.5227881096E-01
          0                10           2             4    7     1       0.1934242483E-03       4    7    1         0.1078687479E-01      0.2052787233E-01
          0                11           1             4    7     1       0.7861040505E-04       4    7    1         0.4389506164E-02      0.8070903570E-02

    ------------------------------------------------
       NWT REQUIRED           11 OUTER ITERATIONS 
       AND A TOTAL OF         21 INNER ITERATIONS.
    ------------------------------------------------

 NO OUTPUT CONTROL FOR STRESS PERIOD   19   TIME STEP   26
 
 SOLVING FOR HEAD 
                                                   Max.-Head-Change                         Max.-Flux-Residual
  Residual-Control   Outer-Iter.   Inner-Iter.     Column Row Layer    Maximum-Head-Change  Column Row Layer    Maximum-Flux-Residual          L2-NORM 
          0                 1           2             4    5     1       0.8353280713E-01       4    5    1         0.4492957885E+01      0.1038252571E+02
          0                 2           2             4    5     1      -0.8157867348E-02       4    5    1        -0.4493057161E+00      0.1114145895E+01
          0                 3           2             5    6     1      -0.7200399838E-01       5    6    1        -0.3868516936E+01      0.9322958798E+01
          0                 4           2             4    8     1       0.4367312174E-01       5    8    1         0.2390285422E+01      0.5732094282E+01
          0                 5           2             4    7     1       0.1698611121E-01       4    7    1         0.9393989184E+00      0.2224294829E+01
          0                 6           2             4    7     1       0.6964815719E-02       4    7    1         0.3860773861E+00      0.8649389668E+00
          0                 7           2             4    7     1       0.2848682610E-02       4    7    1         0.1582367375E+00      0.3369782793E+00
          0                 8           2             4    7     1       0.1162544683E-02       4    7    1         0.6469597423E-01      0.1315228212E+00
          0                 9           2             4    7     1       0.4734819598E-03       4    7    1         0.2639332064E-01      0.5142059708E-01
          0                10           2             4    7     1       0.1924907018E-03       4    7    1         0.1074614317E-01      0.2013551314E-01
          0                11           1             4    7     1       0.7812721922E-04       4    7    1         0.4367527426E-02      0.7896415202E-02

    ------------------------------------------------
       NWT REQUIRED           11 OUTER ITERATIONS 
       AND A TOTAL OF         21 INNER ITERATIONS.
    ------------------------------------------------

 NO OUTPUT CONTROL FOR STRESS PERIOD   19   TIME STEP   27
 
 SOLVING FOR HEAD 
                                                   Max.-Head-Change                         Max.-Flux-Residual
  Residual-Control   Outer-Iter.   Inner-Iter.     Column Row Layer    Maximum-Head-Change  Column Row Layer    Maximum-Flux-Residual          L2-NORM 
          0                 1           2             4    5     1       0.8066359325E-01       4    5    1         0.4337525415E+01      0.1013566227E+02
          0                 2           2             4    5     1      -0.7874995606E-02       4    5    1        -0.4337619035E+00      0.1142529981E+01
          0                 3           2             5    7     1      -0.7263763719E-01       5    8    1        -0.3859021718E+01      0.9381228258E+01
          0                 4           2             5    8     1       0.4368703765E-01       5    8    1         0.2408662787E+01      0.5766289917E+01
          0                 5           2             4    7     1       0.1681351959E-01       4    7    1         0.9298379411E+00      0.2204215731E+01
          0                 6           2             4    7     1       0.6750249092E-02       4    7    1         0.3740799406E+00      0.8441389746E+00
          0                 7           2             4    7     1       0.2704017211E-02       4    7    1         0.1501269272E+00      0.3237969746E+00
          0                 8           2             4    7     1       0.1080991000E-02       4    7    1         0.6011691538E-01      0.1243889022E+00
          0                 9           2             4    7     1       0.4313602400E-03       4    7    1         0.2402543149E-01      0.4785090185E-01
          0                10           2             4    7     1       0.1718445991E-03       4    7    1         0.9584355259E-02      0.1843105300E-01
          0                11           1             4    7     1       0.6835545829E-04       4    7    1         0.3817180885E-02      0.7107482156E-02

    ------------------------------------------------
       NWT REQUIRED           11 OUTER ITERATIONS 
       AND A TOTAL OF         21 INNER ITERATIONS.
    ------------------------------------------------

 NO OUTPUT CONTROL FOR STRESS PERIOD   19   TIME STEP   28
 
 SOLVING FOR HEAD 
                                                   Max.-Head-Change                         Max.-Flux-Residual
  Residual-Control   Outer-Iter.   Inner-Iter.     Column Row Layer    Maximum-Head-Change  Column Row Layer    Maximum-Flux-Residual          L2-NORM 
          0                 1           2             4    5     1       0.7775590847E-01       4    5    1         0.4188814329E+01      0.9839589381E+01
          0                 2           2             4    5     1      -0.7662538811E-02       4    5    1        -0.4188880529E+00      0.1135859248E+01
          0                 3           2             4    7     1      -0.7284669525E-01       4    6    1        -0.3851707548E+01      0.9433410612E+01
          0                 4           2             5    8     1       0.4373836866E-01       5    8    1         0.2411588492E+01      0.5772625266E+01
          0                 5           2             4    7     1       0.1679782892E-01       4    7    1         0.9027117578E+00      0.2190632684E+01
          0                 6           2             4    7     1       0.6462126465E-02       4    6    1         0.3482418225E+00      0.8320261724E+00
          0                 7           2             4    7     1       0.2485100057E-02       4    6    1         0.1348520815E+00      0.3162206736E+00
          0                 8           2             4    6     1       0.9572083157E-03       4    6    1         0.5220048611E-01      0.1202545003E+00
          0                 9           2             4    6     1       0.3702978526E-03       4    6    1         0.2019931475E-01      0.4575543100E-01
          0                10           2             4    6     1       0.1432023403E-03       4    6    1         0.7813559666E-02      0.1741767117E-01
          0                11           1             4    6     1       0.5536155614E-04       4    6    1         0.3021454831E-02      0.6633187647E-02

    ------------------------------------------------
       NWT REQUIRED           11 OUTER ITERATIONS 
       AND A TOTAL OF         21 INNER ITERATIONS.
    ------------------------------------------------

 NO OUTPUT CONTROL FOR STRESS PERIOD   19   TIME STEP   29
 
 SOLVING FOR HEAD 
                                                   Max.-Head-Change                         Max.-Flux-Residual
  Residual-Control   Outer-Iter.   Inner-Iter.     Column Row Layer    Maximum-Head-Change  Column Row Layer    Maximum-Flux-Residual          L2-NORM 
          0                 1           2             3    7     1       0.7617240916E-01       4    5    1         0.4031810553E+01      0.9531864794E+01
          0                 2           2             3    7     1      -0.7447433271E-02       4    5    1        -0.4031875216E+00      0.1104073278E+01
          0                 3           2             4    7     1      -0.7280880745E-01       5    6    1        -0.3864202857E+01      0.9426906023E+01
          0                 4           2             5    8     1       0.4383214246E-01       5    8    1         0.2416790000E+01      0.5788958242E+01
          0                 5           2             4    7     1       0.1680522328E-01       4    7    1         0.9030662390E+00      0.2188427524E+01
          0                 6           2             4    7     1       0.6465212308E-02       4    6    1         0.3488578947E+00      0.8280663135E+00
          0                 7           2             4    7     1       0.2486304100E-02       4    6    1         0.1350081909E+00      0.3135544774E+00
          0                 8           2             4    6     1       0.9564979684E-03       4    6    1         0.5221348360E-01      0.1188081837E+00
          0                 9           2             4    6     1       0.3695174106E-03       4    6    1         0.2018070157E-01      0.4504391211E-01
          0                10           2             4    6     1       0.1426753691E-03       4    6    1         0.7795413601E-02      0.1708663750E-01
          0                11           1             4    6     1       0.5506073022E-04       4    6    1         0.3009593109E-02      0.6484626642E-02

    ------------------------------------------------
       NWT REQUIRED           11 OUTER ITERATIONS 
       AND A TOTAL OF         21 INNER ITERATIONS.
    ------------------------------------------------

 NO OUTPUT CONTROL FOR STRESS PERIOD   19   TIME STEP   30



 STREAM LISTING     PERIOD     19   STEP       30

 LAYER ROW COL. STREAM  RCH.  FLOW INTO     FLOW TO   FLOW OUT OF   OVRLND.     DIRECT     STREAM       STREAM     STREAM     STREAM   STREAMBED  STREAMBED
                SEG.NO.  NO.  STRM. RCH.    AQUIFER    STRM. RCH.    RUNOFF     PRECIP       ET          HEAD       DEPTH      WIDTH   CONDCTNC.   GRADIENT

   1    1    1     1     1    4.0501E+01  3.0566E-01   4.0195E+01  0.000E+00  0.000E+00  0.000E+00  1.09438E+03  1.335E+00  1.567E+01  7.051E-02  1.445E+00
   1    2    2     1     2    4.0195E+01  4.7341E-01   3.9722E+01  0.000E+00  0.000E+00  0.000E+00  1.08939E+03  1.332E+00  1.561E+01  1.093E-01  1.444E+00
   1    3    3     1     3    3.9722E+01  4.0378E-01   3.9318E+01  0.000E+00  0.000E+00  0.000E+00  1.08375E+03  1.329E+00  1.555E+01  9.328E-02  1.443E+00
   1    3    4     1     4    3.9318E+01  3.7185E-01   3.8946E+01  0.000E+00  0.000E+00  0.000E+00  1.07873E+03  1.326E+00  1.549E+01  8.596E-02  1.442E+00
   1    4    5     2     1    3.6946E+01  3.5272E-01   3.6593E+01  0.000E+00  0.000E+00  0.000E+00  1.07346E+03  1.522E+00  1.200E+01  7.800E-02  1.507E+00
   1    5    6     2     2    3.6593E+01  2.7086E-01   3.6322E+01  0.000E+00  0.000E+00  0.000E+00  1.06802E+03  1.514E+00  1.200E+01  6.000E-02  1.505E+00
   1    6    6     2     3    3.6322E+01  2.7045E-01   3.6052E+01  0.000E+00  0.000E+00  0.000E+00  1.06330E+03  1.508E+00  1.200E+01  6.000E-02  1.503E+00
   1    7    6     2     4    3.6052E+01  2.7005E-01   3.5782E+01  0.000E+00  0.000E+00  0.000E+00  1.05858E+03  1.501E+00  1.200E+01  6.000E-02  1.500E+00
   1    8    6     2     5    3.5782E+01  2.6964E-01   3.5512E+01  0.000E+00  0.000E+00  0.000E+00  1.05385E+03  1.494E+00  1.200E+01  6.000E-02  1.498E+00
   1    3    5     3     1    2.0000E+00  2.8252E-01   1.7175E+00  0.000E+00  0.000E+00  0.000E+00  1.07555E+03  1.909E+00  9.636E+00  7.227E-02  1.955E+00
   1    3    6     3     2    1.7175E+00  2.4905E-01   1.4684E+00  0.000E+00  0.000E+00  0.000E+00  1.07264E+03  1.727E+00  8.909E+00  6.682E-02  1.864E+00
   1    3    7     3     3    1.4684E+00  1.9718E-01   1.2712E+00  0.000E+00  0.000E+00  0.000E+00  1.06987E+03  1.555E+00  8.218E+00  5.547E-02  1.777E+00
   1    4    8     3     4    1.2712E+00  2.2567E-01   1.0456E+00  0.000E+00  0.000E+00  0.000E+00  1.06682E+03  1.364E+00  7.455E+00  6.709E-02  1.682E+00
   1    5    8     3     5    1.0456E+00  1.5790E-01   8.8768E-01  0.000E+00  0.000E+00  0.000E+00  1.06362E+03  1.164E+00  6.655E+00  4.991E-02  1.582E+00
   1    6    8     3     6    8.8768E-01  5.5980E-02   8.3170E-01  0.000E+00  0.000E+00  0.000E+00  1.06158E+03  1.036E+00  6.145E+00  1.844E-02  1.518E+00
   1    5   10     4     1    1.0000E+01  9.0919E-02   9.9091E+00  0.000E+00  0.000E+00  0.000E+00  1.07836E+03  6.368E-01  1.000E+01  2.500E-02  1.212E+00
   1    5    9     4     2    9.9091E+00  1.8158E-01   9.7275E+00  0.000E+00  0.000E+00  0.000E+00  1.07154E+03  6.315E-01  1.000E+01  5.000E-02  1.211E+00
   1    6    8     4     3    9.7275E+00  1.2689E-01   9.6006E+00  0.000E+00  0.000E+00  0.000E+00  1.06381E+03  6.256E-01  1.000E+01  3.500E-02  1.209E+00
   1    6    8     5     1    1.0432E+01  2.2686E-01   1.0205E+01  0.000E+00  0.000E+00  0.000E+00  1.05868E+03  6.790E-01  1.542E+01  6.166E-02  1.226E+00
   1    7    7     5     2    1.0205E+01  2.7894E-01   9.9265E+00  0.000E+00  0.000E+00  0.000E+00  1.05417E+03  6.732E-01  1.519E+01  7.594E-02  1.224E+00
   1    8    7     5     3    9.9265E+00  1.9221E-01   9.7343E+00  0.000E+00  0.000E+00  0.000E+00  1.04992E+03  6.676E-01  1.497E+01  5.241E-02  1.223E+00
   1    8    6     5     4    9.7343E+00  1.3577E-01   9.5985E+00  0.000E+00  0.000E+00  0.000E+00  1.04691E+03  6.637E-01  1.482E+01  3.706E-02  1.221E+00
   1    9    6     6     1    2.2641E+01  2.4881E-01   2.2392E+01  0.000E+00  0.000E+00  0.000E+00  1.04387E+03  1.147E+00  1.200E+01  6.000E-02  1.382E+00
   1   10    7     6     2    2.2392E+01  2.4835E-01   2.2144E+01  0.000E+00  0.000E+00  0.000E+00  1.03932E+03  1.139E+00  1.200E+01  6.000E-02  1.380E+00
   1   11    7     6     3    2.2144E+01  2.4789E-01   2.1896E+01  0.000E+00  0.000E+00  0.000E+00  1.03477E+03  1.132E+00  1.200E+01  6.000E-02  1.377E+00
   1   12    7     6     4    2.1896E+01  2.4743E-01   2.1648E+01  0.000E+00  0.000E+00  0.000E+00  1.03021E+03  1.124E+00  1.200E+01  6.000E-02  1.375E+00
   1   13    7     6     5    2.1648E+01  3.2780E-04   2.1648E+01  0.000E+00  0.000E+00  0.000E+00  1.02703E+03  1.120E+00  1.200E+01  2.400E-02  4.553E-03
   1   14    9     7     1    1.5000E+02  1.3422E+00   1.4866E+02  0.000E+00  0.000E+00  0.000E+00  1.03987E+03  2.288E+00  5.529E+01  5.593E-01  7.999E-01
   1   13    8     7     2    1.4866E+02  1.8556E+00   1.4680E+02  0.000E+00  0.000E+00  0.000E+00  1.03478E+03  2.279E+00  5.526E+01  6.148E-01  1.006E+00
   1   13    7     7     3    1.4680E+02  1.4934E+00   1.4531E+02  0.000E+00  0.000E+00  0.000E+00  1.02969E+03  2.270E+00  5.522E+01  5.584E-01  8.914E-01
   1   13    6     8     1    1.6696E+02  9.1789E-01   1.6604E+02  0.000E+00  0.000E+00  0.000E+00  1.02480E+03  2.929E+00  4.247E+01  4.328E-01  7.069E-01
   1   13    5     8     2    1.6604E+02  1.6827E-01   1.6587E+02  0.000E+00  0.000E+00  0.000E+00  1.01855E+03  2.926E+00  4.242E+01  4.323E-01  1.297E-01
   1   13    4     8     3    1.6587E+02 -2.4985E+00   1.6837E+02  0.000E+00  0.000E+00  0.000E+00  1.01231E+03  2.933E+00  4.253E+01  4.334E+00 -1.921E-01
   1   13    3     8     4    1.6837E+02 -3.6845E+00   1.7205E+02  0.000E+00  0.000E+00  0.000E+00  1.00608E+03  2.954E+00  4.283E+01  4.364E+00 -2.814E-01
   1   13    2     8     5    1.7205E+02 -2.5973E+00   1.7465E+02  0.000E+00  0.000E+00  0.000E+00  9.99849E+02  2.974E+00  4.312E+01  4.394E+00 -1.970E-01
   1   13    1     8     6    1.7465E+02 -1.9752E+00   1.7663E+02  0.000E+00  0.000E+00  0.000E+00  9.94864E+02  2.989E+00  4.333E+01  2.650E+00 -2.485E-01
   1    8    6     9     1    2.2470E+01  0.0000E+00   2.2470E+01  0.000E+00  0.000E+00  0.000E+00  1.08243E+03  3.683E+00  4.000E+00  0.000E+00  2.228E+00
   1    8    5     9     2    2.2470E+01  0.0000E+00   2.2470E+01  0.000E+00  0.000E+00  0.000E+00  1.08193E+03  3.683E+00  4.000E+00  0.000E+00  2.228E+00





UNSATURATED ZONE PACKAGE VOLUMETRIC BUDGET FOR  TIME STEP    30 STRESS PERIOD   19
  ------------------------------------------------------------------------------



     CUMULATIVE VOLUMES      L**3       RATES FOR THIS TIME STEP      L**3/T
     ------------------                 ------------------------

           IN:                                      IN:
           ---                                      ---
        INFILTRATION =  2495426242.5245          INFILTRATION =          23.3179

          OUT:                                     OUT:
          ----                                     ----
              UZF ET =   536331722.0555                UZF ET =          23.3175
        UZF RECHARGE =  1517870286.2090          UZF RECHARGE =          23.8321

            IN - OUT =   441224234.2601              IN - OUT =         -23.8317

          STORAGE:                                 STORAGE:
          --------                                 --------
      STORAGE CHANGE =   441220853.5681        STORAGE CHANGE =         -23.8317

 PERCENT DISCREPANCY IS DIFFERENCE BETWEEN IN-OUT MINUS CHANGE IN STORAGE
 DIVIDED BY THE AVERAGE OF IN AND OUT TIMES 100

 PERCENT DISCREPANCY =           0.00     PERCENT DISCREPANCY =           0.00






1
  VOLUMETRIC BUDGET FOR AGRICULTURAL FIELDS AT  END OF TIME STEP   30, STRESS PERIOD  19
  ------------------------------------------------------------------------------

     CUMULATIVE VOLUMES      L**3       RATES FOR THIS TIME STEP      L**3/T
     ------------------                 ------------------------

           IN:                                      IN:
           ---                                      ---
           AG WELLS      =  1608451840.0000             AG WELLS      =           0.0000
      DIVERSION SEGMENTS =   846763904.0000        DIVERSION SEGMENTS =          22.4700
           GW IRRIGATION =           0.0000             GW IRRIGATION =           0.0000
           SW IRRIGATION =           0.0000             SW IRRIGATION =           0.0000
        SYSTEM LOSSES GW =           0.0000          SYSTEM LOSSES GW =           0.0000
        SYSTEM LOSSES SW =           0.0000          SYSTEM LOSSES SW =           0.0000

                TOTAL IN =  2455215616.0000                  TOTAL IN =          22.4700

          OUT:                                     OUT:
          ----                                     ----
           AG WELLS      =           0.0000             AG WELLS      =           0.0000
      DIVERSION SEGMENTS =           0.0000        DIVERSION SEGMENTS =           0.0000
           GW IRRIGATION =  1608451840.0000             GW IRRIGATION =           0.0000
           SW IRRIGATION =   846780224.0000             SW IRRIGATION =          22.4704
        SYSTEM LOSSES GW =           0.0000          SYSTEM LOSSES GW =           0.0000
        SYSTEM LOSSES SW =           0.0000          SYSTEM LOSSES SW =           0.0000

               TOTAL OUT =  2455232000.0000                 TOTAL OUT =          22.4704

                IN - OUT =      -16384.0000                  IN - OUT =      -4.4823E-04

     PERCENT DISCREPANCY =          -0.00         PERCENT DISCREPANCY =          -0.00



1
  VOLUMETRIC BUDGET FOR ENTIRE MODEL AT END OF TIME STEP   30, STRESS PERIOD  19
  ------------------------------------------------------------------------------

     CUMULATIVE VOLUMES      L**3       RATES FOR THIS TIME STEP      L**3/T
     ------------------                 ------------------------

           IN:                                      IN:
           ---                                      ---
             STORAGE     =  1618114304.0000               STORAGE     =           9.3871
       CONSTANT HEAD     =           0.0000         CONSTANT HEAD     =           0.0000
     HEAD DEP BOUNDS     =    13557747.0000       HEAD DEP BOUNDS     =           0.2862
      STREAM LEAKAGE     =   570729024.0000        STREAM LEAKAGE     =          12.1599
        UZF RECHARGE     =  1517870336.0000          UZF RECHARGE     =          23.8321
               GW ET     =           0.0000                 GW ET     =           0.0000
     SURFACE LEAKAGE     =           0.0000       SURFACE LEAKAGE     =           0.0000
           AG WELLS      =           0.0000             AG WELLS      =           0.0000

                TOTAL IN =  3720271360.0000                  TOTAL IN =          45.6654

          OUT:                                     OUT:
          ----                                     ----
             STORAGE     =  1587363456.0000               STORAGE     =          34.6148
       CONSTANT HEAD     =           0.0000         CONSTANT HEAD     =           0.0000
     HEAD DEP BOUNDS     =    13745745.0000       HEAD DEP BOUNDS     =           0.2891
      STREAM LEAKAGE     =   510602144.0000        STREAM LEAKAGE     =          10.7554
        UZF RECHARGE     =           0.0000          UZF RECHARGE     =           0.0000
               GW ET     =      106432.0312                 GW ET     =           0.0000
     SURFACE LEAKAGE     =           0.0000       SURFACE LEAKAGE     =           0.0000
           AG WELLS      =  1608451840.0000             AG WELLS      =           0.0000

               TOTAL OUT =  3720269824.0000                 TOTAL OUT =          45.6594

                IN - OUT =        1536.0000                  IN - OUT =       5.9929E-03

     PERCENT DISCREPANCY =           0.00         PERCENT DISCREPANCY =           0.01






         TIME SUMMARY AT END OF TIME STEP   30 IN STRESS PERIOD   19
                    SECONDS     MINUTES      HOURS       DAYS        YEARS
                    -----------------------------------------------------------
   TIME STEP LENGTH  87667.      1461.1      24.352      1.0147     2.77799E-03
 STRESS PERIOD TIME 2.63000E+06  43833.      730.56      30.440     8.33397E-02
         TOTAL TIME 4.74265E+07 7.90442E+05  13174.      548.92      1.5029    
1
1
                            STRESS PERIOD NO.   20, LENGTH =   2630000.    
                            -----------------------------------------------

                              NUMBER OF TIME STEPS =    30

                               MULTIPLIER FOR DELT =     1.000

                            INITIAL TIME STEP SIZE =   87666.66    

 REUSING NON-PARAMETER GHB CELLS FROM LAST STRESS PERIOD

      2 GHB CELLS

 REUSING STREAM SEGMENT DATA FROM LAST STRESS PERIOD



            AREAL INFILTRATION RATE
 READING ON UNIT   19 WITH FORMAT: (FREE)              

            1           2           3           4           5           6           7           8           9          10
 ........................................................................................................................
   1   1.0000E-10  2.0000E-10   0.000       0.000       0.000       0.000       0.000       0.000       0.000       0.000    
   2   2.0000E-10  1.0000E-10  2.0000E-10   0.000       0.000      8.0000E-10  8.0000E-10  5.0000E-10   0.000       0.000    
   3    0.000      5.0000E-10  1.0000E-10  1.0000E-10  8.0000E-10  8.0000E-10  5.0000E-10  5.0000E-10   0.000       0.000    
   4   8.0000E-10  5.0000E-10  1.0000E-10  1.0000E-10  1.0000E-10  1.0000E-10  1.0000E-10  1.0000E-10  2.0000E-10   0.000    
   5   8.0000E-10  5.0000E-10  1.0000E-10  1.0000E-10  1.0000E-10  1.0000E-10  1.0000E-10  1.0000E-10  1.0000E-10  1.0000E-10
   6   8.0000E-10  5.0000E-10  5.0000E-10  2.0000E-10  2.0000E-10  1.0000E-10  1.0000E-10  1.0000E-10  1.0000E-10  5.0000E-10
   7   8.0000E-10  5.0000E-10  5.0000E-10  2.0000E-10  2.0000E-10  1.0000E-10  1.0000E-10  2.0000E-10  2.0000E-10   0.000    
   8    0.000      5.0000E-10  5.0000E-10  2.0000E-10  2.0000E-10  1.0000E-10  1.0000E-10  2.0000E-10  5.0000E-10   0.000    
   9    0.000      5.0000E-10  5.0000E-10  2.0000E-10  2.0000E-10  1.0000E-10  1.0000E-10  2.0000E-10  5.0000E-10   0.000    
  10    0.000      5.0000E-10  5.0000E-10  2.0000E-10  2.0000E-10  1.0000E-10  1.0000E-10  2.0000E-10  5.0000E-10  8.0000E-10
  11    0.000      1.0000E-10  1.0000E-10  1.0000E-10  1.0000E-10  1.0000E-10  1.0000E-10  2.0000E-10  5.0000E-10   0.000    
  12   1.0000E-10  1.0000E-10  1.0000E-10  1.0000E-10  1.0000E-10  1.0000E-10  1.0000E-10  1.0000E-10  2.0000E-10   0.000    
  13   1.0000E-10  1.0000E-10  2.0000E-10  2.0000E-10  2.0000E-10  2.0000E-10  2.0000E-10  1.0000E-10  1.0000E-10   0.000    
  14    0.000      2.0000E-10  5.0000E-10  5.0000E-10  5.0000E-10  5.0000E-10  5.0000E-10  2.0000E-10  1.0000E-10   0.000    
  15    0.000       0.000      8.0000E-10  8.0000E-10  8.0000E-10  8.0000E-10   0.000       0.000       0.000       0.000    

                  ET RATE =  4.000000E-07

 USING ET EXTINCTION DEPTH FROM PREVIOUS STRESS PERIOD. CURRENT PERIOD IS:      20

 USING EXTINCTION WATER CONTENT FROM PREVIOUS STRESS PERIOD. CURRENT PERIOD IS:      20

 USING AIR ENTRY PRESSURE FROM PREVIOUS STRESS PERIOD. CURRENT PERIOD IS:      20

 USING ROOT PRESSURE HEAD FROM PREVIOUS STRESS PERIOD. CURRENT PERIOD IS:      20

 USING ROOT ACTIVITY FROM PREVIOUS STRESS PERIOD. CURRENT PERIOD IS:      20

 PROCESSING AG STRESS PERIOD DATA

 READING AG STRESS PERIOD DATA

 READING IRRIGATION SEGMENT

 READING IRRIGATION WELL

 READING SUPPLEMENTAL WELL

 END PROCESSING AG STRESS PERIOD DATA OPTIONS
 
 SOLVING FOR HEAD 
                                                   Max.-Head-Change                         Max.-Flux-Residual
  Residual-Control   Outer-Iter.   Inner-Iter.     Column Row Layer    Maximum-Head-Change  Column Row Layer    Maximum-Flux-Residual          L2-NORM 
          0                 1           2             3    7     1       0.7483150221E-01       4    5    1         0.3883463804E+01      0.9234841552E+01
          0                 2           2             4    8     1      -0.2008306808E+00       5    6    1        -0.1068339730E+02      0.2590312955E+02
          0                 3           2             4    6     1      -0.7065386872E-01       4    6    1        -0.3766528744E+01      0.7365545793E+01
          0                 4           2             4    6     1       0.6872428186E-02       4    6    1         0.3766518408E+00      0.7365846871E+00
          0                 5           2             4    6     1      -0.4679894927E-03       4    6    1        -0.2636698654E-01      0.5156537985E-01
          0                 6           1             4    6     1       0.1862174752E-04       4    6    1         0.1078456969E-02      0.2109212516E-02

    ------------------------------------------------
       NWT REQUIRED            6 OUTER ITERATIONS 
       AND A TOTAL OF         11 INNER ITERATIONS.
    ------------------------------------------------

 OUTPUT CONTROL FOR STRESS PERIOD   20   TIME STEP    1
    PRINT BUDGET
    SAVE BUDGET
    SAVE BUDGET
    SAVE HEAD FOR ALL LAYERS
 UBDSV1 SAVING "         STORAGE" ON UNIT 102 AT TIME STEP  1, STRESS PERIOD  20
 UBDSV2 SAVING "   CONSTANT HEAD" ON UNIT 102 AT TIME STEP  1, STRESS PERIOD  20
 UBDSV1 SAVING "FLOW RIGHT FACE " ON UNIT 102 AT TIME STEP  1, STRESS PERIOD  20
 UBDSV1 SAVING "FLOW FRONT FACE " ON UNIT 102 AT TIME STEP  1, STRESS PERIOD  20

  HEAD DEP BOUNDS   PERIOD   20   STEP     1
 BOUNDARY      1   LAYER   1   ROW    13   COL     1   RATE   -0.289051    
 BOUNDARY      2   LAYER   1   ROW    14   COL     9   RATE    0.286192    



 STREAM LISTING     PERIOD     20   STEP        1

 LAYER ROW COL. STREAM  RCH.  FLOW INTO     FLOW TO   FLOW OUT OF   OVRLND.     DIRECT     STREAM       STREAM     STREAM     STREAM   STREAMBED  STREAMBED
                SEG.NO.  NO.  STRM. RCH.    AQUIFER    STRM. RCH.    RUNOFF     PRECIP       ET          HEAD       DEPTH      WIDTH   CONDCTNC.   GRADIENT

   1    1    1     1     1    4.0501E+01  3.0566E-01   4.0195E+01  0.000E+00  0.000E+00  0.000E+00  1.09438E+03  1.335E+00  1.567E+01  7.051E-02  1.445E+00
   1    2    2     1     2    4.0195E+01  4.7341E-01   3.9722E+01  0.000E+00  0.000E+00  0.000E+00  1.08939E+03  1.332E+00  1.561E+01  1.093E-01  1.444E+00
   1    3    3     1     3    3.9722E+01  4.0378E-01   3.9318E+01  0.000E+00  0.000E+00  0.000E+00  1.08375E+03  1.329E+00  1.555E+01  9.328E-02  1.443E+00
   1    3    4     1     4    3.9318E+01  3.7185E-01   3.8946E+01  0.000E+00  0.000E+00  0.000E+00  1.07873E+03  1.326E+00  1.549E+01  8.596E-02  1.442E+00
   1    4    5     2     1    3.6946E+01  3.5272E-01   3.6593E+01  0.000E+00  0.000E+00  0.000E+00  1.07346E+03  1.522E+00  1.200E+01  7.800E-02  1.507E+00
   1    5    6     2     2    3.6593E+01  2.7086E-01   3.6322E+01  0.000E+00  0.000E+00  0.000E+00  1.06802E+03  1.514E+00  1.200E+01  6.000E-02  1.505E+00
   1    6    6     2     3    3.6322E+01  2.7045E-01   3.6052E+01  0.000E+00  0.000E+00  0.000E+00  1.06330E+03  1.508E+00  1.200E+01  6.000E-02  1.503E+00
   1    7    6     2     4    3.6052E+01  2.7005E-01   3.5782E+01  0.000E+00  0.000E+00  0.000E+00  1.05858E+03  1.501E+00  1.200E+01  6.000E-02  1.500E+00
   1    8    6     2     5    3.5782E+01  2.6964E-01   3.5512E+01  0.000E+00  0.000E+00  0.000E+00  1.05385E+03  1.494E+00  1.200E+01  6.000E-02  1.498E+00
   1    3    5     3     1    2.0000E+00  2.8252E-01   1.7175E+00  0.000E+00  0.000E+00  0.000E+00  1.07555E+03  1.909E+00  9.636E+00  7.227E-02  1.955E+00
   1    3    6     3     2    1.7175E+00  2.4905E-01   1.4684E+00  0.000E+00  0.000E+00  0.000E+00  1.07264E+03  1.727E+00  8.909E+00  6.682E-02  1.864E+00
   1    3    7     3     3    1.4684E+00  1.9718E-01   1.2712E+00  0.000E+00  0.000E+00  0.000E+00  1.06987E+03  1.555E+00  8.218E+00  5.547E-02  1.777E+00
   1    4    8     3     4    1.2712E+00  2.2567E-01   1.0456E+00  0.000E+00  0.000E+00  0.000E+00  1.06682E+03  1.364E+00  7.455E+00  6.709E-02  1.682E+00
   1    5    8     3     5    1.0456E+00  1.5790E-01   8.8768E-01  0.000E+00  0.000E+00  0.000E+00  1.06362E+03  1.164E+00  6.655E+00  4.991E-02  1.582E+00
   1    6    8     3     6    8.8768E-01  5.5980E-02   8.3170E-01  0.000E+00  0.000E+00  0.000E+00  1.06158E+03  1.036E+00  6.145E+00  1.844E-02  1.518E+00
   1    5   10     4     1    1.0000E+01  9.0919E-02   9.9091E+00  0.000E+00  0.000E+00  0.000E+00  1.07836E+03  6.368E-01  1.000E+01  2.500E-02  1.212E+00
   1    5    9     4     2    9.9091E+00  1.8158E-01   9.7275E+00  0.000E+00  0.000E+00  0.000E+00  1.07154E+03  6.315E-01  1.000E+01  5.000E-02  1.211E+00
   1    6    8     4     3    9.7275E+00  1.2689E-01   9.6006E+00  0.000E+00  0.000E+00  0.000E+00  1.06381E+03  6.256E-01  1.000E+01  3.500E-02  1.209E+00
   1    6    8     5     1    1.0432E+01  2.2686E-01   1.0205E+01  0.000E+00  0.000E+00  0.000E+00  1.05868E+03  6.790E-01  1.542E+01  6.166E-02  1.226E+00
   1    7    7     5     2    1.0205E+01  2.7894E-01   9.9265E+00  0.000E+00  0.000E+00  0.000E+00  1.05417E+03  6.732E-01  1.519E+01  7.594E-02  1.224E+00
   1    8    7     5     3    9.9265E+00  1.9221E-01   9.7343E+00  0.000E+00  0.000E+00  0.000E+00  1.04992E+03  6.676E-01  1.497E+01  5.241E-02  1.223E+00
   1    8    6     5     4    9.7343E+00  1.3577E-01   9.5985E+00  0.000E+00  0.000E+00  0.000E+00  1.04691E+03  6.637E-01  1.482E+01  3.706E-02  1.221E+00
   1    9    6     6     1    9.5985E+00  2.2097E-01   9.3776E+00  0.000E+00  0.000E+00  0.000E+00  1.04341E+03  6.828E-01  1.200E+01  6.000E-02  1.228E+00
   1   10    7     6     2    9.3776E+00  2.2039E-01   9.1572E+00  0.000E+00  0.000E+00  0.000E+00  1.03885E+03  6.732E-01  1.200E+01  6.000E-02  1.224E+00
   1   11    7     6     3    9.1572E+00  2.1981E-01   8.9374E+00  0.000E+00  0.000E+00  0.000E+00  1.03430E+03  6.636E-01  1.200E+01  6.000E-02  1.221E+00
   1   12    7     6     4    8.9374E+00  2.1923E-01   8.7181E+00  0.000E+00  0.000E+00  0.000E+00  1.02974E+03  6.539E-01  1.200E+01  6.000E-02  1.218E+00
   1   13    7     6     5    8.7181E+00 -1.0884E-01   8.8270E+00  0.000E+00  0.000E+00  0.000E+00  1.02656E+03  6.514E-01  1.200E+01  2.400E-01 -1.512E-01
   1   14    9     7     1    1.5000E+02  1.3422E+00   1.4866E+02  0.000E+00  0.000E+00  0.000E+00  1.03987E+03  2.288E+00  5.529E+01  5.593E-01  7.999E-01
   1   13    8     7     2    1.4866E+02  1.8556E+00   1.4680E+02  0.000E+00  0.000E+00  0.000E+00  1.03478E+03  2.279E+00  5.526E+01  6.148E-01  1.006E+00
   1   13    7     7     3    1.4680E+02  1.4942E+00   1.4531E+02  0.000E+00  0.000E+00  0.000E+00  1.02969E+03  2.270E+00  5.522E+01  5.584E-01  8.919E-01
   1   13    6     8     1    1.5414E+02  8.5496E-01   1.5328E+02  0.000E+00  0.000E+00  0.000E+00  1.02472E+03  2.843E+00  4.122E+01  4.200E-01  6.785E-01
   1   13    5     8     2    1.5328E+02  1.2750E-01   1.5315E+02  0.000E+00  0.000E+00  0.000E+00  1.01846E+03  2.839E+00  4.117E+01  4.195E-01  1.013E-01
   1   13    4     8     3    1.5315E+02 -2.7610E+00   1.5591E+02  0.000E+00  0.000E+00  0.000E+00  1.01222E+03  2.848E+00  4.130E+01  4.209E+00 -2.187E-01
   1   13    3     8     4    1.5591E+02 -3.9116E+00   1.5983E+02  0.000E+00  0.000E+00  0.000E+00  1.00600E+03  2.871E+00  4.163E+01  4.243E+00 -3.073E-01
   1   13    2     8     5    1.5983E+02 -2.8476E+00   1.6267E+02  0.000E+00  0.000E+00  0.000E+00  9.99769E+02  2.894E+00  4.197E+01  4.277E+00 -2.220E-01
   1   13    1     8     6    1.6267E+02 -2.1180E+00   1.6479E+02  0.000E+00  0.000E+00  0.000E+00  9.94786E+02  2.911E+00  4.221E+01  2.581E+00 -2.736E-01
   1    8    6     9     1    3.5512E+01  0.0000E+00   3.5512E+01  0.000E+00  0.000E+00  0.000E+00  1.08360E+03  4.847E+00  4.000E+00  0.000E+00  2.616E+00
   1    8    5     9     2    3.5512E+01  0.0000E+00   3.5512E+01  0.000E+00  0.000E+00  0.000E+00  1.08310E+03  4.847E+00  4.000E+00  0.000E+00  2.616E+00



 UBDSV3 SAVING "           GW ET" ON UNIT  61 AT TIME STEP  1, STRESS PERIOD  20
 UBDSV3 SAVING "    UZF RECHARGE" ON UNIT  61 AT TIME STEP  1, STRESS PERIOD  20
 UBDSV3 SAVING " SURFACE LEAKAGE" ON UNIT  61 AT TIME STEP  1, STRESS PERIOD  20
 UBDSV3 SAVING "       HORT+DUNN" ON UNIT  61 AT TIME STEP  1, STRESS PERIOD  20
 UBDSV3 SAVING "  STORAGE CHANGE" ON UNIT  61 AT TIME STEP  1, STRESS PERIOD  20


UNSATURATED ZONE PACKAGE VOLUMETRIC BUDGET FOR  TIME STEP     1 STRESS PERIOD   20
  ------------------------------------------------------------------------------



     CUMULATIVE VOLUMES      L**3       RATES FOR THIS TIME STEP      L**3/T
     ------------------                 ------------------------

           IN:                                      IN:
           ---                                      ---
        INFILTRATION =  2504047010.0204          INFILTRATION =          98.3358

          OUT:                                     OUT:
          ----                                     ----
              UZF ET =   541663389.3014                UZF ET =          60.8175
        UZF RECHARGE =  1517870286.2090          UZF RECHARGE =       0.0000E+00

            IN - OUT =   444513334.5101              IN - OUT =          37.5183

          STORAGE:                                 STORAGE:
          --------                                 --------
      STORAGE CHANGE =   444509953.8483        STORAGE CHANGE =          37.5183

 PERCENT DISCREPANCY IS DIFFERENCE BETWEEN IN-OUT MINUS CHANGE IN STORAGE
 DIVIDED BY THE AVERAGE OF IN AND OUT TIMES 100

 PERCENT DISCREPANCY =           0.00     PERCENT DISCREPANCY =           0.00






 

        AG WELLS          PERIOD   20   STEP   1
 AG WELL      1   LAYER   1   ROW     6   COL     4   RATE    -10.3292    
 AG WELL      2   LAYER   1   ROW     6   COL     5   RATE    -10.3292    
 AG WELL      3   LAYER   1   ROW     7   COL     4   RATE    -10.3292    
 AG WELL      4   LAYER   1   ROW     7   COL     5   RATE    -10.3292    
 AG WELL      5   LAYER   1   ROW     8   COL     4   RATE    -10.3292    
 AG WELL      6   LAYER   1   ROW     8   COL     5   RATE    -10.3292    
 
 

   DIVERSION SEGMENTS     PERIOD   20   STEP   1
 SEGMENT      9   RATE     35.5122    
 
 

        SW IRRIGATION     PERIOD   20   STEP   1
 SEGMENT      9   ROW     6   COL     4   RATE     5.91882    
 SEGMENT      9   ROW     6   COL     5   RATE     5.91882    
 SEGMENT      9   ROW     7   COL     4   RATE     5.91882    
 SEGMENT      9   ROW     7   COL     5   RATE     5.91882    
 SEGMENT      9   ROW     8   COL     4   RATE     5.91882    
 SEGMENT      9   ROW     8   COL     5   RATE     5.91882    
 
 

        GW IRRIGATION     PERIOD   20   STEP   1
 AG WELL      1   ROW     6   COL     4   RATE     10.3292    
 AG WELL      2   ROW     6   COL     5   RATE     10.3292    
 AG WELL      3   ROW     7   COL     4   RATE     10.3292    
 AG WELL      4   ROW     7   COL     5   RATE     10.3292    
 AG WELL      5   ROW     8   COL     4   RATE     10.3292    
 AG WELL      6   ROW     8   COL     5   RATE     10.3292    
 
1
  VOLUMETRIC BUDGET FOR AGRICULTURAL FIELDS AT  END OF TIME STEP    1, STRESS PERIOD  20
  ------------------------------------------------------------------------------

     CUMULATIVE VOLUMES      L**3       RATES FOR THIS TIME STEP      L**3/T
     ------------------                 ------------------------

           IN:                                      IN:
           ---                                      ---
           AG WELLS      =  1613885056.0000             AG WELLS      =          61.9753
      DIVERSION SEGMENTS =   849877120.0000        DIVERSION SEGMENTS =          35.5122
           GW IRRIGATION =           0.0000             GW IRRIGATION =           0.0000
           SW IRRIGATION =           0.0000             SW IRRIGATION =           0.0000
        SYSTEM LOSSES GW =           0.0000          SYSTEM LOSSES GW =           0.0000
        SYSTEM LOSSES SW =           0.0000          SYSTEM LOSSES SW =           0.0000

                TOTAL IN =  2463762176.0000                  TOTAL IN =          97.4875

          OUT:                                     OUT:
          ----                                     ----
           AG WELLS      =           0.0000             AG WELLS      =           0.0000
      DIVERSION SEGMENTS =           0.0000        DIVERSION SEGMENTS =           0.0000
           GW IRRIGATION =  1613885056.0000             GW IRRIGATION =          61.9753
           SW IRRIGATION =   849893504.0000             SW IRRIGATION =          35.5129
        SYSTEM LOSSES GW =           0.0000          SYSTEM LOSSES GW =           0.0000
        SYSTEM LOSSES SW =           0.0000          SYSTEM LOSSES SW =           0.0000

               TOTAL OUT =  2463778560.0000                 TOTAL OUT =          97.4883

                IN - OUT =      -16384.0000                  IN - OUT =      -7.0953E-04

     PERCENT DISCREPANCY =          -0.00         PERCENT DISCREPANCY =          -0.00




 HEAD WILL BE SAVED ON UNIT   62 AT END OF TIME STEP    1, STRESS PERIOD   20
1
  VOLUMETRIC BUDGET FOR ENTIRE MODEL AT END OF TIME STEP    1, STRESS PERIOD  20
  ------------------------------------------------------------------------------

     CUMULATIVE VOLUMES      L**3       RATES FOR THIS TIME STEP      L**3/T
     ------------------                 ------------------------

           IN:                                      IN:
           ---                                      ---
             STORAGE     =  1626351360.0000               STORAGE     =          93.9592
       CONSTANT HEAD     =           0.0000         CONSTANT HEAD     =           0.0000
     HEAD DEP BOUNDS     =    13582837.0000       HEAD DEP BOUNDS     =           0.2862
      STREAM LEAKAGE     =   571776192.0000        STREAM LEAKAGE     =          11.9447
        UZF RECHARGE     =  1517870336.0000          UZF RECHARGE     =           0.0000
               GW ET     =           0.0000                 GW ET     =           0.0000
     SURFACE LEAKAGE     =           0.0000       SURFACE LEAKAGE     =           0.0000
           AG WELLS      =           0.0000             AG WELLS      =           0.0000

                TOTAL IN =  3729580800.0000                  TOTAL IN =         106.1900

          OUT:                                     OUT:
          ----                                     ----
             STORAGE     =  1590184448.0000               STORAGE     =          32.1787
       CONSTANT HEAD     =           0.0000         CONSTANT HEAD     =           0.0000
     HEAD DEP BOUNDS     =    13771085.0000       HEAD DEP BOUNDS     =           0.2891
      STREAM LEAKAGE     =   511631968.0000        STREAM LEAKAGE     =          11.7470
        UZF RECHARGE     =           0.0000          UZF RECHARGE     =           0.0000
               GW ET     =      106432.0312                 GW ET     =           0.0000
     SURFACE LEAKAGE     =           0.0000       SURFACE LEAKAGE     =           0.0000
           AG WELLS      =  1613885056.0000             AG WELLS      =          61.9753

               TOTAL OUT =  3729579008.0000                 TOTAL OUT =         106.1901

                IN - OUT =        1792.0000                  IN - OUT =      -6.1035E-05

     PERCENT DISCREPANCY =           0.00         PERCENT DISCREPANCY =          -0.00






         TIME SUMMARY AT END OF TIME STEP    1 IN STRESS PERIOD   20
                    SECONDS     MINUTES      HOURS       DAYS        YEARS
                    -----------------------------------------------------------
   TIME STEP LENGTH  87667.      1461.1      24.352      1.0147     2.77799E-03
 STRESS PERIOD TIME  87667.      1461.1      24.352      1.0147     2.77799E-03
         TOTAL TIME 4.75142E+07 7.91903E+05  13198.      549.93      1.5056    
1
 
 SOLVING FOR HEAD 
                                                   Max.-Head-Change                         Max.-Flux-Residual
  Residual-Control   Outer-Iter.   Inner-Iter.     Column Row Layer    Maximum-Head-Change  Column Row Layer    Maximum-Flux-Residual          L2-NORM 
          0                 1           2             3    7     1       0.7040391893E-01       4    5    1         0.3526918927E+01      0.1044723051E+02
          0                 2           2             4    8     1      -0.1317488285E+00       4    8    1        -0.6965633050E+01      0.1678058104E+02
          0                 3           2             4    8     1       0.1038029291E+00       4    8    1         0.5661235710E+01      0.1197633446E+02
          0                 4           2             4    6     1       0.8466053186E-02       4    6    1         0.4807945135E+00      0.8646969744E+00
          0                 5           2             4    6     1       0.3059526672E-02       4    6    1         0.1734338441E+00      0.1988676099E+00
          0                 6           2             4    6     1       0.1112873120E-02       4    6    1         0.6268829279E-01      0.6674746988E-01
          0                 7           2             4    6     1       0.4047810505E-03       4    6    1         0.2281636637E-01      0.2428018517E-01
          0                 8           2             4    6     1       0.1472234971E-03       4    6    1         0.8298490322E-02      0.8835235017E-02
          0                 9           1             4    6     1       0.5354462597E-04       4    6    1         0.3018173355E-02      0.3215048016E-02

    ------------------------------------------------
       NWT REQUIRED            9 OUTER ITERATIONS 
       AND A TOTAL OF         17 INNER ITERATIONS.
    ------------------------------------------------

 NO OUTPUT CONTROL FOR STRESS PERIOD   20   TIME STEP    2
 
 SOLVING FOR HEAD 
                                                   Max.-Head-Change                         Max.-Flux-Residual
  Residual-Control   Outer-Iter.   Inner-Iter.     Column Row Layer    Maximum-Head-Change  Column Row Layer    Maximum-Flux-Residual          L2-NORM 
          0                 1           2             3    7     1       0.6855210277E-01       4    5    1         0.3341035574E+01      0.8176996543E+01
          0                 2           2             4    8     1      -0.1202731576E+00       4    8    1        -0.6359848433E+01      0.1523798179E+02
          0                 3           2             4    8     1       0.1955606775E-01       4    8    1         0.1070193108E+01      0.2033613184E+01
          0                 4           2             4    8     1      -0.1392035508E-01       4    8    1        -0.7846089393E+00      0.1423361576E+01
          0                 5           2             4    7     1      -0.3845972225E-02       4    6    1        -0.2150627984E+00      0.4701401000E+00
          0                 6           2             4    6     1      -0.1514600094E-02       4    6    1        -0.8495642727E-01      0.1801755059E+00
          0                 7           2             4    6     1      -0.5977452237E-03       4    6    1        -0.3354280153E-01      0.6981018047E-01
          0                 8           2             4    6     1      -0.2357627572E-03       4    6    1        -0.1323692883E-01      0.2552171688E-01
          0                 9           1             4    6     1      -0.9290924365E-04       4    6    1        -0.5220493386E-02      0.9354690440E-02

    ------------------------------------------------
       NWT REQUIRED            9 OUTER ITERATIONS 
       AND A TOTAL OF         17 INNER ITERATIONS.
    ------------------------------------------------

 NO OUTPUT CONTROL FOR STRESS PERIOD   20   TIME STEP    3
 
 SOLVING FOR HEAD 
                                                   Max.-Head-Change                         Max.-Flux-Residual
  Residual-Control   Outer-Iter.   Inner-Iter.     Column Row Layer    Maximum-Head-Change  Column Row Layer    Maximum-Flux-Residual          L2-NORM 
          0                 1           2             3    7     1       0.6597214305E-01       4    5    1         0.3122847473E+01      0.7562529587E+01
          0                 2           2             4    7     1      -0.1189159449E+00       4    7    1        -0.6216773985E+01      0.1492196641E+02
          0                 3           2             5    6     1       0.1273680692E-01       5    6    1         0.7061199984E+00      0.1489027136E+01
          0                 4           2             4    7     1      -0.1253603203E-01       4    7    1        -0.6930103977E+00      0.1640910602E+01
          0                 5           2             4    7     1      -0.4912128250E-02       4    7    1        -0.2716096379E+00      0.6407885914E+00
          0                 6           2             4    7     1      -0.1924298167E-02       4    6    1        -0.1067287277E+00      0.2503317211E+00
          0                 7           2             4    7     1      -0.7536638393E-03       4    6    1        -0.4212538983E-01      0.9782896043E-01
          0                 8           2             4    6     1      -0.2958916261E-03       5    8    1        -0.1662095935E-01      0.3824328698E-01
          0                 9           2             4    6     1      -0.1166120428E-03       5    8    1        -0.6615930761E-02      0.1495430399E-01
          0                10           1             4    6     1      -0.4593617287E-04       5    8    1        -0.2631467646E-02      0.5849093202E-02

    ------------------------------------------------
       NWT REQUIRED           10 OUTER ITERATIONS 
       AND A TOTAL OF         19 INNER ITERATIONS.
    ------------------------------------------------

 NO OUTPUT CONTROL FOR STRESS PERIOD   20   TIME STEP    4
 
 SOLVING FOR HEAD 
                                                   Max.-Head-Change                         Max.-Flux-Residual
  Residual-Control   Outer-Iter.   Inner-Iter.     Column Row Layer    Maximum-Head-Change  Column Row Layer    Maximum-Flux-Residual          L2-NORM 
          0                 1           2             3    7     1       0.6336428169E-01       4    5    1         0.2911348587E+01      0.7094430302E+01
          0                 2           2             4    7     1      -0.1182080455E+00       4    7    1        -0.6182462263E+01      0.1479930934E+02
          0                 3           2             5    6     1       0.1184429466E-01       5    6    1         0.6551518682E+00      0.1490015534E+01
          0                 4           2             4    7     1      -0.1259819756E-01       4    7    1        -0.6967160481E+00      0.1646403636E+01
          0                 5           2             4    7     1      -0.4934586636E-02       4    7    1        -0.2729455482E+00      0.6428197937E+00
          0                 6           2             4    7     1      -0.1932431617E-02       4    7    1        -0.1069052504E+00      0.2510853690E+00
          0                 7           2             4    7     1      -0.7566173571E-03       4    6    1        -0.4219479228E-01      0.9810941235E-01
          0                 8           2             4    6     1      -0.2965983781E-03       4    6    1        -0.1665157050E-01      0.3834795918E-01
          0                 9           2             4    6     1      -0.1169298412E-03       5    8    1        -0.6602615358E-02      0.1499348533E-01
          0                10           1             4    6     1      -0.4607535968E-04       5    8    1        -0.2626098146E-02      0.5863802692E-02

    ------------------------------------------------
       NWT REQUIRED           10 OUTER ITERATIONS 
       AND A TOTAL OF         19 INNER ITERATIONS.
    ------------------------------------------------

 NO OUTPUT CONTROL FOR STRESS PERIOD   20   TIME STEP    5
 
 SOLVING FOR HEAD 
                                                   Max.-Head-Change                         Max.-Flux-Residual
  Residual-Control   Outer-Iter.   Inner-Iter.     Column Row Layer    Maximum-Head-Change  Column Row Layer    Maximum-Flux-Residual          L2-NORM 
          0                 1           2             3    7     1       0.6082548892E-01       4    5    1         0.2711934920E+01      0.6673108705E+01
          0                 2           2             4    7     1      -0.1174958594E+00       4    7    1        -0.6146417665E+01      0.1464024574E+02
          0                 3           2             5    6     1       0.1238801934E-01       5    6    1         0.6854899828E+00      0.1538682868E+01
          0                 4           2             4    7     1      -0.1248191882E-01       4    7    1        -0.6904241888E+00      0.1622712094E+01
          0                 5           2             4    7     1      -0.4889165558E-02       4    7    1        -0.2704845503E+00      0.6337530147E+00
          0                 6           2             4    7     1      -0.1914287118E-02       4    7    1        -0.1059205562E+00      0.2475572252E+00
          0                 7           2             4    7     1      -0.7493707738E-03       4    6    1        -0.4156704096E-01      0.9673430377E-01
          0                 8           2             4    7     1      -0.2933030822E-03       4    6    1        -0.1640454123E-01      0.3781170994E-01
          0                 9           2             4    6     1      -0.1152044989E-03       5    8    1        -0.6502712595E-02      0.1478426203E-01
          0                10           1             4    6     1      -0.4539740978E-04       5    8    1        -0.2586539289E-02      0.5782135820E-02

    ------------------------------------------------
       NWT REQUIRED           10 OUTER ITERATIONS 
       AND A TOTAL OF         19 INNER ITERATIONS.
    ------------------------------------------------

 NO OUTPUT CONTROL FOR STRESS PERIOD   20   TIME STEP    6
 
 SOLVING FOR HEAD 
                                                   Max.-Head-Change                         Max.-Flux-Residual
  Residual-Control   Outer-Iter.   Inner-Iter.     Column Row Layer    Maximum-Head-Change  Column Row Layer    Maximum-Flux-Residual          L2-NORM 
          0                 1           2             3    7     1       0.5836134997E-01       4    5    1         0.2524387499E+01      0.6315963398E+01
          0                 2           2             4    7     1      -0.1168019475E+00       4    7    1        -0.6110252938E+01      0.1451869996E+02
          0                 3           2             5    7     1       0.1200437159E-01       5    8    1         0.6765031524E+00      0.1513612148E+01
          0                 4           2             4    7     1      -0.1235564158E-01       4    7    1        -0.6832363279E+00      0.1618524164E+01
          0                 5           2             4    7     1      -0.4837697274E-02       4    8    1        -0.2737267993E+00      0.6386654305E+00
          0                 6           2             4    8     1      -0.1921959191E-02       4    8    1        -0.1105622700E+00      0.2520869851E+00
          0                 7           2             4    8     1      -0.7753822613E-03       4    8    1        -0.4462853348E-01      0.9954630222E-01
          0                 8           2             4    8     1      -0.3126328189E-03       4    8    1        -0.1800335294E-01      0.3932670260E-01
          0                 9           2             4    8     1      -0.1259832009E-03       4    8    1        -0.7258422843E-02      0.1554258311E-01
          0                10           1             4    8     1      -0.5074127640E-04       4    8    1        -0.2924768556E-02      0.6144959214E-02

    ------------------------------------------------
       NWT REQUIRED           10 OUTER ITERATIONS 
       AND A TOTAL OF         19 INNER ITERATIONS.
    ------------------------------------------------

 NO OUTPUT CONTROL FOR STRESS PERIOD   20   TIME STEP    7
 
 SOLVING FOR HEAD 
                                                   Max.-Head-Change                         Max.-Flux-Residual
  Residual-Control   Outer-Iter.   Inner-Iter.     Column Row Layer    Maximum-Head-Change  Column Row Layer    Maximum-Flux-Residual          L2-NORM 
          0                 1           2             3    7     1       0.5597004504E-01       4    5    1         0.2344858340E+01      0.6024003393E+01
          0                 2           2             4    7     1      -0.1161599654E+00       4    7    1        -0.6075631852E+01      0.1444119856E+02
          0                 3           2             5    8     1       0.1225293364E-01       5    8    1         0.6973824957E+00      0.1493164135E+01
          0                 4           2             4    7     1      -0.1225170333E-01       4    7    1        -0.6769951487E+00      0.1614448268E+01
          0                 5           2             4    7     1      -0.4798600823E-02       5    7    1        -0.2709274409E+00      0.6413917161E+00
          0                 6           2             5    7     1      -0.1898993953E-02       5    7    1        -0.1093436336E+00      0.2548802198E+00
          0                 7           2             5    7     1      -0.7652705047E-03       5    7    1        -0.4409405232E-01      0.1013322363E+00
          0                 8           2             4    8     1      -0.3084929982E-03       5    7    1        -0.1776804292E-01      0.4030318993E-01
          0                 9           2             4    8     1      -0.1243451900E-03       4    8    1        -0.7162409566E-02      0.1603595246E-01
          0                10           1             4    8     1      -0.5009682576E-04       4    8    1        -0.2886791715E-02      0.6382609364E-02

    ------------------------------------------------
       NWT REQUIRED           10 OUTER ITERATIONS 
       AND A TOTAL OF         19 INNER ITERATIONS.
    ------------------------------------------------

 NO OUTPUT CONTROL FOR STRESS PERIOD   20   TIME STEP    8
 
 SOLVING FOR HEAD 
                                                   Max.-Head-Change                         Max.-Flux-Residual
  Residual-Control   Outer-Iter.   Inner-Iter.     Column Row Layer    Maximum-Head-Change  Column Row Layer    Maximum-Flux-Residual          L2-NORM 
          0                 1           2             3    7     1       0.5364859971E-01       4    5    1         0.2166007481E+01      0.5752383208E+01
          0                 2           2             4    7     1      -0.1154691506E+00       4    7    1        -0.6040561779E+01      0.1430381113E+02
          0                 3           2             5    8     1       0.1254327177E-01       5    8    1         0.7138394869E+00      0.1535673412E+01
          0                 4           2             4    7     1      -0.1212382162E-01       4    7    1        -0.6700566231E+00      0.1590784637E+01
          0                 5           2             4    7     1      -0.4747622317E-02       5    7    1        -0.2669802411E+00      0.6320035643E+00
          0                 6           2             5    7     1      -0.1871362154E-02       5    7    1        -0.1077519023E+00      0.2511533663E+00
          0                 7           2             4    8     1      -0.7547727262E-03       5    7    1        -0.4345260832E-01      0.9985216514E-01
          0                 8           2             4    8     1      -0.3043889012E-03       4    8    1        -0.1752507562E-01      0.3971518036E-01
          0                 9           2             4    8     1      -0.1226939243E-03       4    8    1        -0.7067140732E-02      0.1580226592E-01
          0                10           1             4    8     1      -0.4943262195E-04       4    8    1        -0.2848462276E-02      0.6289708930E-02

    ------------------------------------------------
       NWT REQUIRED           10 OUTER ITERATIONS 
       AND A TOTAL OF         19 INNER ITERATIONS.
    ------------------------------------------------

 NO OUTPUT CONTROL FOR STRESS PERIOD   20   TIME STEP    9
 
 SOLVING FOR HEAD 
                                                   Max.-Head-Change                         Max.-Flux-Residual
  Residual-Control   Outer-Iter.   Inner-Iter.     Column Row Layer    Maximum-Head-Change  Column Row Layer    Maximum-Flux-Residual          L2-NORM 
          0                 1           2             3    7     1       0.5139741201E-01       4    5    1         0.1998753060E+01      0.5534447417E+01
          0                 2           2             4    7     1      -0.1147626340E+00       4    7    1        -0.6004481635E+01      0.1417366924E+02
          0                 3           2             5    8     1       0.1280988769E-01       5    8    1         0.7289381817E+00      0.1535630789E+01
          0                 4           2             4    7     1      -0.1200178425E-01       4    6    1        -0.6720513498E+00      0.1580323710E+01
          0                 5           2             4    7     1      -0.4699996003E-02       4    6    1        -0.2708545753E+00      0.6322980527E+00
          0                 6           2             4    6     1      -0.1890624641E-02       4    6    1        -0.1090698957E+00      0.2529828496E+00
          0                 7           2             4    6     1      -0.7605654157E-03       4    6    1        -0.4389628368E-01      0.1012351167E+00
          0                 8           2             4    6     1      -0.3058207698E-03       4    6    1        -0.1765760484E-01      0.4051675669E-01
          0                 9           2             4    6     1      -0.1229176526E-03       4    6    1        -0.7099642819E-02      0.1621773948E-01
          0                10           1             4    6     1      -0.4938499522E-04       4    6    1        -0.2853378866E-02      0.6492151566E-02

    ------------------------------------------------
       NWT REQUIRED           10 OUTER ITERATIONS 
       AND A TOTAL OF         19 INNER ITERATIONS.
    ------------------------------------------------

 NO OUTPUT CONTROL FOR STRESS PERIOD   20   TIME STEP   10
 
 SOLVING FOR HEAD 
                                                   Max.-Head-Change                         Max.-Flux-Residual
  Residual-Control   Outer-Iter.   Inner-Iter.     Column Row Layer    Maximum-Head-Change  Column Row Layer    Maximum-Flux-Residual          L2-NORM 
          0                 1           2             3    7     1       0.4906322430E-01       4    5    1         0.1842339787E+01      0.5366018362E+01
          0                 2           2             4    7     1      -0.1140449660E+00       4    7    1        -0.5967698214E+01      0.1405025333E+02
          0                 3           2             5    8     1       0.1305479672E-01       5    8    1         0.7427962508E+00      0.1573149236E+01
          0                 4           2             4    7     1      -0.1187243245E-01       4    6    1        -0.6611644337E+00      0.1558256559E+01
          0                 5           2             4    7     1      -0.4648651249E-02       4    6    1        -0.2664924197E+00      0.6234622778E+00
          0                 6           2             4    6     1      -0.1860457484E-02       4    6    1        -0.1073214088E+00      0.2494424170E+00
          0                 7           2             4    6     1      -0.7484881934E-03       4    6    1        -0.4319616541E-01      0.9981795790E-01
          0                 8           2             4    6     1      -0.3009866769E-03       4    6    1        -0.1737732725E-01      0.3994952357E-01
          0                 9           2             4    6     1      -0.1209830784E-03       4    6    1        -0.6987461350E-02      0.1599070765E-01
          0                10           1             4    6     1      -0.4861091611E-04       4    6    1        -0.2808486047E-02      0.6401286778E-02

    ------------------------------------------------
       NWT REQUIRED           10 OUTER ITERATIONS 
       AND A TOTAL OF         19 INNER ITERATIONS.
    ------------------------------------------------

 NO OUTPUT CONTROL FOR STRESS PERIOD   20   TIME STEP   11
 
 SOLVING FOR HEAD 
                                                   Max.-Head-Change                         Max.-Flux-Residual
  Residual-Control   Outer-Iter.   Inner-Iter.     Column Row Layer    Maximum-Head-Change  Column Row Layer    Maximum-Flux-Residual          L2-NORM 
          0                 1           2             3    7     1       0.4686710322E-01       4    5    1         0.1696077475E+01      0.5243083114E+01
          0                 2           2             4    7     1      -0.1133211478E+00       4    7    1        -0.5930440436E+01      0.1393315810E+02
          0                 3           2             5    8     1       0.1327989094E-01       5    8    1         0.7555219332E+00      0.1608402430E+01
          0                 4           2             4    7     1      -0.1174308914E-01       4    6    1        -0.6507954182E+00      0.1537086662E+01
          0                 5           2             4    7     1      -0.4597439193E-02       4    6    1        -0.2623366662E+00      0.6149881417E+00
          0                 6           2             4    6     1      -0.1831723410E-02       4    6    1        -0.1056564402E+00      0.2460506403E+00
          0                 7           2             4    6     1      -0.7369813492E-03       4    6    1        -0.4252928038E-01      0.9846042519E-01
          0                 8           2             4    6     1      -0.2963796502E-03       4    6    1        -0.1711027689E-01      0.3940619413E-01
          0                 9           2             4    6     1      -0.1191389172E-03       4    6    1        -0.6880545642E-02      0.1577325428E-01
          0                10           1             4    6     1      -0.4787284437E-04       4    6    1        -0.2765689969E-02      0.6314258823E-02

    ------------------------------------------------
       NWT REQUIRED           10 OUTER ITERATIONS 
       AND A TOTAL OF         19 INNER ITERATIONS.
    ------------------------------------------------

 NO OUTPUT CONTROL FOR STRESS PERIOD   20   TIME STEP   12
 
 SOLVING FOR HEAD 
                                                   Max.-Head-Change                         Max.-Flux-Residual
  Residual-Control   Outer-Iter.   Inner-Iter.     Column Row Layer    Maximum-Head-Change  Column Row Layer    Maximum-Flux-Residual          L2-NORM 
          0                 1           2             3    7     1       0.4474657522E-01       5    8    1         0.1671788355E+01      0.5161354513E+01
          0                 2           2             4    7     1      -0.1095238874E+00       4    7    1        -0.5892922307E+01      0.1382197274E+02
          0                 3           2             5    8     1       0.1348713343E-01       5    8    1         0.7671987995E+00      0.1606072462E+01
          0                 4           2             4    7     1      -0.1180755226E-01       4    7    1        -0.6719631104E+00      0.1529663758E+01
          0                 5           2             4    7     1      -0.4813925555E-02       4    7    1        -0.2740689817E+00      0.6166349832E+00
          0                 6           2             4    7     1      -0.1961379356E-02       4    7    1        -0.1117087364E+00      0.2485420332E+00
          0                 7           2             4    7     1      -0.7988228545E-03       4    7    1        -0.4551279424E-01      0.1001872367E+00
          0                 8           2             4    7     1      -0.3252172297E-03       4    7    1        -0.1853560558E-01      0.4038891654E-01
          0                 9           2             4    7     1      -0.1323542640E-03       4    7    1        -0.7545959616E-02      0.1628343875E-01
          0                10           1             4    7     1      -0.5384562739E-04       4    7    1        -0.3070886138E-02      0.6565401076E-02

    ------------------------------------------------
       NWT REQUIRED           10 OUTER ITERATIONS 
       AND A TOTAL OF         19 INNER ITERATIONS.
    ------------------------------------------------

 NO OUTPUT CONTROL FOR STRESS PERIOD   20   TIME STEP   13
 
 SOLVING FOR HEAD 
                                                   Max.-Head-Change                         Max.-Flux-Residual
  Residual-Control   Outer-Iter.   Inner-Iter.     Column Row Layer    Maximum-Head-Change  Column Row Layer    Maximum-Flux-Residual          L2-NORM 
          0                 1           2             3    7     1       0.4270064942E-01       5    8    1         0.1782413111E+01      0.5116108099E+01
          0                 2           2             4    7     1      -0.1088180578E+00       4    7    1        -0.5855345476E+01      0.1371632749E+02
          0                 3           2             5    8     1       0.1367716292E-01       5    8    1         0.7779229515E+00      0.1637390352E+01
          0                 4           2             4    7     1      -0.1167500909E-01       4    7    1        -0.6644700056E+00      0.1509957203E+01
          0                 5           2             4    7     1      -0.4759541036E-02       4    7    1        -0.2709915720E+00      0.6087030380E+00
          0                 6           2             4    7     1      -0.1939091570E-02       4    7    1        -0.1104464865E+00      0.2453500702E+00
          0                 7           2             4    7     1      -0.7896966005E-03       4    7    1        -0.4499552715E-01      0.9890253573E-01
          0                 8           2             4    7     1      -0.3214832180E-03       4    7    1        -0.1832380887E-01      0.3987177834E-01
          0                 9           2             4    7     1      -0.1308276202E-03       4    7    1        -0.7459306993E-02      0.1607524529E-01
          0                10           1             4    7     1      -0.5322189472E-04       4    7    1        -0.3035459997E-02      0.6481574990E-02

    ------------------------------------------------
       NWT REQUIRED           10 OUTER ITERATIONS 
       AND A TOTAL OF         19 INNER ITERATIONS.
    ------------------------------------------------

 NO OUTPUT CONTROL FOR STRESS PERIOD   20   TIME STEP   14
 
 SOLVING FOR HEAD 
                                                   Max.-Head-Change                         Max.-Flux-Residual
  Residual-Control   Outer-Iter.   Inner-Iter.     Column Row Layer    Maximum-Head-Change  Column Row Layer    Maximum-Flux-Residual          L2-NORM 
          0                 1           2             3    7     1       0.4072774090E-01       5    8    1         0.1885775577E+01      0.5102333017E+01
          0                 2           2             4    7     1      -0.1081155993E+00       4    7    1        -0.5817857477E+01      0.1361586840E+02
          0                 3           2             5    8     1       0.1385187863E-01       5    8    1         0.7877738700E+00      0.1666781520E+01
          0                 4           2             4    7     1      -0.1154347309E-01       4    7    1        -0.6570226321E+00      0.1490986043E+01
          0                 5           2             4    7     1      -0.4705672804E-02       4    7    1        -0.2679391120E+00      0.6010685629E+00
          0                 6           2             4    7     1      -0.1917045048E-02       4    7    1        -0.1091962736E+00      0.2422770814E+00
          0                 7           2             4    7     1      -0.7806804566E-03       4    7    1        -0.4448388003E-01      0.9766544217E-01
          0                 8           2             4    7     1      -0.3177985785E-03       4    7    1        -0.1811457544E-01      0.3937369897E-01
          0                 9           2             4    7     1      -0.1293228122E-03       4    7    1        -0.7373803142E-02      0.1587468502E-01
          0                10           1             4    7     1      -0.5260771406E-04       4    7    1        -0.3000541728E-02      0.6400807237E-02

    ------------------------------------------------
       NWT REQUIRED           10 OUTER ITERATIONS 
       AND A TOTAL OF         19 INNER ITERATIONS.
    ------------------------------------------------

 NO OUTPUT CONTROL FOR STRESS PERIOD   20   TIME STEP   15
 
 SOLVING FOR HEAD 
                                                   Max.-Head-Change                         Max.-Flux-Residual
  Residual-Control   Outer-Iter.   Inner-Iter.     Column Row Layer    Maximum-Head-Change  Column Row Layer    Maximum-Flux-Residual          L2-NORM 
          0                 1           2             3    7     1       0.3882573848E-01       5    8    1         0.1982445649E+01      0.5115481100E+01
          0                 2           2             4    7     1      -0.1074188201E+00       4    7    1        -0.5780593732E+01      0.1352029818E+02
          0                 3           2             5    8     1       0.1401240132E-01       5    8    1         0.7968159298E+00      0.1694347836E+01
          0                 4           2             4    7     1      -0.1141325591E-01       4    7    1        -0.6496401703E+00      0.1472715088E+01
          0                 5           2             4    7     1      -0.4652362204E-02       4    7    1        -0.2649145239E+00      0.5937072098E+00
          0                 6           2             4    7     1      -0.1895252669E-02       4    7    1        -0.1079590499E+00      0.2393133657E+00
          0                 7           2             4    7     1      -0.7717781455E-03       4    7    1        -0.4397814908E-01      0.9647208806E-01
          0                 8           2             4    7     1      -0.3141642402E-03       4    7    1        -0.1790799055E-01      0.3889313507E-01
          0                 9           2             4    7     1      -0.1278399927E-03       4    7    1        -0.7289469180E-02      0.1568114169E-01
          0                10           1             4    7     1      -0.5200306078E-04       4    7    1        -0.2966134685E-02      0.6322851691E-02

    ------------------------------------------------
       NWT REQUIRED           10 OUTER ITERATIONS 
       AND A TOTAL OF         19 INNER ITERATIONS.
    ------------------------------------------------

 NO OUTPUT CONTROL FOR STRESS PERIOD   20   TIME STEP   16
 
 SOLVING FOR HEAD 
                                                   Max.-Head-Change                         Max.-Flux-Residual
  Residual-Control   Outer-Iter.   Inner-Iter.     Column Row Layer    Maximum-Head-Change  Column Row Layer    Maximum-Flux-Residual          L2-NORM 
          0                 1           2             5    8     1       0.3864674671E-01       5    8    1         0.2072987068E+01      0.5151224969E+01
          0                 2           2             4    7     1      -0.1067297802E+00       4    7    1        -0.5743675564E+01      0.1342931466E+02
          0                 3           2             5    8     1       0.1415986338E-01       5    8    1         0.8051143032E+00      0.1720210327E+01
          0                 4           2             4    7     1      -0.1128451995E-01       4    7    1        -0.6423332049E+00      0.1455094731E+01
          0                 5           2             4    7     1      -0.4599758494E-02       4    7    1        -0.2619268049E+00      0.5866120448E+00
          0                 6           2             4    7     1      -0.1873771768E-02       4    7    1        -0.1067382725E+00      0.2364562315E+00
          0                 7           2             4    7     1      -0.7630116791E-03       4    7    1        -0.4347966218E-01      0.9532142727E-01
          0                 8           2             4    7     1      -0.3105886518E-03       4    7    1        -0.1770456409E-01      0.3842967974E-01
          0                 9           2             4    7     1      -0.1263824021E-03       4    7    1        -0.7206500801E-02      0.1549445686E-01
          0                10           1             4    7     1      -0.5140917763E-04       4    7    1        -0.2932313957E-02      0.6247646536E-02

    ------------------------------------------------
       NWT REQUIRED           10 OUTER ITERATIONS 
       AND A TOTAL OF         19 INNER ITERATIONS.
    ------------------------------------------------

 NO OUTPUT CONTROL FOR STRESS PERIOD   20   TIME STEP   17
 
 SOLVING FOR HEAD 
                                                   Max.-Head-Change                         Max.-Flux-Residual
  Residual-Control   Outer-Iter.   Inner-Iter.     Column Row Layer    Maximum-Head-Change  Column Row Layer    Maximum-Flux-Residual          L2-NORM 
          0                 1           2             5    8     1       0.4020774864E-01       5    8    1         0.2157861838E+01      0.5205508756E+01
          0                 2           2             4    7     1      -0.1060500533E+00       4    7    1        -0.5707196627E+01      0.1334264601E+02
          0                 3           2             5    8     1       0.1429524760E-01       5    8    1         0.8127253096E+00      0.1744470996E+01
          0                 4           2             4    7     1      -0.1115746172E-01       4    7    1        -0.6351140719E+00      0.1438091320E+01
          0                 5           2             4    7     1      -0.4547883273E-02       4    7    1        -0.2589776384E+00      0.5797627592E+00
          0                 6           2             4    7     1      -0.1852607963E-02       4    7    1        -0.1055344368E+00      0.2336975829E+00
          0                 7           2             4    7     1      -0.7543821212E-03       4    7    1        -0.4298854748E-01      0.9421023032E-01
          0                 8           2             4    7     1      -0.3070717720E-03       4    7    1        -0.1750431980E-01      0.3798204373E-01
          0                 9           2             4    7     1      -0.1249498422E-03       4    7    1        -0.7124896704E-02      0.1531411551E-01
          0                10           1             4    7     1      -0.5082591241E-04       4    7    1        -0.2899074761E-02      0.6174985941E-02

    ------------------------------------------------
       NWT REQUIRED           10 OUTER ITERATIONS 
       AND A TOTAL OF         19 INNER ITERATIONS.
    ------------------------------------------------

 NO OUTPUT CONTROL FOR STRESS PERIOD   20   TIME STEP   18
 
 SOLVING FOR HEAD 
                                                   Max.-Head-Change                         Max.-Flux-Residual
  Residual-Control   Outer-Iter.   Inner-Iter.     Column Row Layer    Maximum-Head-Change  Column Row Layer    Maximum-Flux-Residual          L2-NORM 
          0                 1           2             5    8     1       0.4167416300E-01       5    8    1         0.2237535923E+01      0.5274732078E+01
          0                 2           2             4    7     1      -0.1053812336E+00       4    7    1        -0.5671251532E+01      0.1326004834E+02
          0                 3           2             5    8     1       0.1441957463E-01       5    8    1         0.8197075571E+00      0.1767233710E+01
          0                 4           2             4    7     1      -0.1103226189E-01       4    7    1        -0.6279941454E+00      0.1421672286E+01
          0                 5           2             4    7     1      -0.4496794229E-02       4    7    1        -0.2560707287E+00      0.5731452753E+00
          0                 6           2             4    7     1      -0.1831807049E-02       4    7    1        -0.1043503070E+00      0.2310353250E+00
          0                 7           2             4    7     1      -0.7459070351E-03       4    7    1        -0.4250586574E-01      0.9313768253E-01
          0                 8           2             4    7     1      -0.3036203345E-03       4    7    1        -0.1730766453E-01      0.3754990990E-01
          0                 9           2             4    7     1      -0.1235448919E-03       4    7    1        -0.7044812860E-02      0.1513999411E-01
          0                10           1             4    7     1      -0.5025425365E-04       4    7    1        -0.2866476869E-02      0.6104821735E-02

    ------------------------------------------------
       NWT REQUIRED           10 OUTER ITERATIONS 
       AND A TOTAL OF         19 INNER ITERATIONS.
    ------------------------------------------------

 NO OUTPUT CONTROL FOR STRESS PERIOD   20   TIME STEP   19
 
 SOLVING FOR HEAD 
                                                   Max.-Head-Change                         Max.-Flux-Residual
  Residual-Control   Outer-Iter.   Inner-Iter.     Column Row Layer    Maximum-Head-Change  Column Row Layer    Maximum-Flux-Residual          L2-NORM 
          0                 1           2             5    8     1       0.4305332075E-01       5    8    1         0.2312415674E+01      0.5355729477E+01
          0                 2           2             4    7     1      -0.1047243722E+00       4    7    1        -0.5635903378E+01      0.1318128918E+02
          0                 3           2             5    8     1       0.1453367688E-01       5    8    1         0.8261087706E+00      0.1788586200E+01
          0                 4           2             4    7     1      -0.1090902627E-01       4    7    1        -0.6209802863E+00      0.1405805006E+01
          0                 5           2             4    7     1      -0.4446570648E-02       4    7    1        -0.2532109036E+00      0.5667524562E+00
          0                 6           2             4    7     1      -0.1811323537E-02       4    7    1        -0.1031834273E+00      0.2284561559E+00
          0                 7           2             4    7     1      -0.7375669605E-03       4    7    1        -0.4203055968E-01      0.9209845053E-01
          0                 8           2             4    7     1      -0.3002260580E-03       4    7    1        -0.1711414601E-01      0.3713113910E-01
          0                 9           2             4    7     1      -0.1221640445E-03       4    7    1        -0.6966056855E-02      0.1497123450E-01
          0                10           1             4    7     1      -0.4969272213E-04       4    7    1        -0.2834438799E-02      0.6036809414E-02

    ------------------------------------------------
       NWT REQUIRED           10 OUTER ITERATIONS 
       AND A TOTAL OF         19 INNER ITERATIONS.
    ------------------------------------------------

 NO OUTPUT CONTROL FOR STRESS PERIOD   20   TIME STEP   20
 
 SOLVING FOR HEAD 
                                                   Max.-Head-Change                         Max.-Flux-Residual
  Residual-Control   Outer-Iter.   Inner-Iter.     Column Row Layer    Maximum-Head-Change  Column Row Layer    Maximum-Flux-Residual          L2-NORM 
          0                 1           2             5    8     1       0.4435159142E-01       5    8    1         0.2382853490E+01      0.5445802071E+01
          0                 2           2             4    7     1      -0.1040804656E+00       4    7    1        -0.5601212426E+01      0.1310615106E+02
          0                 3           2             5    8     1       0.1463827894E-01       5    8    1         0.8319704751E+00      0.1808610064E+01
          0                 4           2             4    7     1      -0.1078786157E-01       4    7    1        -0.6140794136E+00      0.1390460112E+01
          0                 5           2             4    7     1      -0.4397216552E-02       4    7    1        -0.2503987218E+00      0.5605679565E+00
          0                 6           2             4    7     1      -0.1791232385E-02       4    7    1        -0.1020381784E+00      0.2259640416E+00
          0                 7           2             4    7     1      -0.7293916486E-03       4    7    1        -0.4156436719E-01      0.9109415323E-01
          0                 8           2             4    7     1      -0.2969007588E-03       4    7    1        -0.1692445408E-01      0.3672639145E-01
          0                 9           2             4    7     1      -0.1208119954E-03       4    7    1        -0.6888902629E-02      0.1480810514E-01
          0                10           1             4    7     1      -0.4914318392E-04       4    7    1        -0.2803069393E-02      0.5971058426E-02

    ------------------------------------------------
       NWT REQUIRED           10 OUTER ITERATIONS 
       AND A TOTAL OF         19 INNER ITERATIONS.
    ------------------------------------------------

 NO OUTPUT CONTROL FOR STRESS PERIOD   20   TIME STEP   21
 
 SOLVING FOR HEAD 
                                                   Max.-Head-Change                         Max.-Flux-Residual
  Residual-Control   Outer-Iter.   Inner-Iter.     Column Row Layer    Maximum-Head-Change  Column Row Layer    Maximum-Flux-Residual          L2-NORM 
          0                 1           2             5    8     1       0.4557505041E-01       5    8    1         0.2449185543E+01      0.5542655757E+01
          0                 2           2             4    7     1      -0.1034503481E+00       4    7    1        -0.5567229376E+01      0.1303443338E+02
          0                 3           2             5    8     1       0.1473408916E-01       5    8    1         0.8373332148E+00      0.1827383751E+01
          0                 4           2             4    7     1      -0.1066885525E-01       4    7    1        -0.6072972370E+00      0.1375610318E+01
          0                 5           2             4    7     1      -0.4348754067E-02       4    7    1        -0.2476357262E+00      0.5545797613E+00
          0                 6           2             4    7     1      -0.1771515430E-02       4    7    1        -0.1009136396E+00      0.2235506982E+00
          0                 7           2             4    7     1      -0.7213729105E-03       4    7    1        -0.4110686541E-01      0.9012147376E-01
          0                 8           2             4    7     1      -0.2936407974E-03       4    7    1        -0.1673839814E-01      0.3633433847E-01
          0                 9           2             4    7     1      -0.1194871459E-03       4    7    1        -0.6813265572E-02      0.1465007423E-01
          0                10           1             4    7     1      -0.4860494478E-04       4    7    1        -0.2772331526E-02      0.5907355456E-02

    ------------------------------------------------
       NWT REQUIRED           10 OUTER ITERATIONS 
       AND A TOTAL OF         19 INNER ITERATIONS.
    ------------------------------------------------

 NO OUTPUT CONTROL FOR STRESS PERIOD   20   TIME STEP   22
 
 SOLVING FOR HEAD 
                                                   Max.-Head-Change                         Max.-Flux-Residual
  Residual-Control   Outer-Iter.   Inner-Iter.     Column Row Layer    Maximum-Head-Change  Column Row Layer    Maximum-Flux-Residual          L2-NORM 
          0                 1           2             5    8     1       0.4672923042E-01       5    8    1         0.2511717342E+01      0.5644396755E+01
          0                 2           2             4    7     1      -0.1028344962E+00       4    7    1        -0.5533984771E+01      0.1296594890E+02
          0                 3           2             5    8     1       0.1482177801E-01       5    8    1         0.8422353439E+00      0.1844984537E+01
          0                 4           2             4    7     1      -0.1055201497E-01       4    7    1        -0.6006348141E+00      0.1361224849E+01
          0                 5           2             4    7     1      -0.4301240812E-02       4    7    1        -0.2449254249E+00      0.5487837531E+00
          0                 6           2             4    7     1      -0.1752194566E-02       4    7    1        -0.9981114511E-01      0.2212145085E+00
          0                 7           2             4    7     1      -0.7135190544E-03       4    7    1        -0.4065856122E-01      0.8917977629E-01
          0                 8           2             4    7     1      -0.2904493248E-03       4    7    1        -0.1655617060E-01      0.3595472987E-01
          0                 9           2             4    7     1      -0.1181906889E-03       4    7    1        -0.6739218590E-02      0.1449704298E-01
          0                10           1             4    7     1      -0.4807845464E-04       4    7    1        -0.2742252790E-02      0.5845661603E-02

    ------------------------------------------------
       NWT REQUIRED           10 OUTER ITERATIONS 
       AND A TOTAL OF         19 INNER ITERATIONS.
    ------------------------------------------------

 NO OUTPUT CONTROL FOR STRESS PERIOD   20   TIME STEP   23
 
 SOLVING FOR HEAD 
                                                   Max.-Head-Change                         Max.-Flux-Residual
  Residual-Control   Outer-Iter.   Inner-Iter.     Column Row Layer    Maximum-Head-Change  Column Row Layer    Maximum-Flux-Residual          L2-NORM 
          0                 1           2             5    8     1       0.4781973155E-01       5    8    1         0.2570759002E+01      0.5749408625E+01
          0                 2           2             4    7     1      -0.1022334038E+00       4    7    1        -0.5501509568E+01      0.1290051252E+02
          0                 3           2             5    8     1       0.1490192263E-01       5    8    1         0.8467100252E+00      0.1861469882E+01
          0                 4           2             4    7     1      -0.1043743792E-01       4    7    1        -0.5940982306E+00      0.1347286269E+01
          0                 5           2             4    7     1      -0.4254611718E-02       4    7    1        -0.2422643444E+00      0.5431590193E+00
          0                 6           2             4    7     1      -0.1733241669E-02       4    7    1        -0.9872918203E-01      0.2189470923E+00
          0                 7           2             4    7     1      -0.7058180074E-03       4    7    1        -0.4021880092E-01      0.8826570128E-01
          0                 8           2             4    7     1      -0.2873211857E-03       4    7    1        -0.1637749083E-01      0.3558621830E-01
          0                 9           2             4    7     1      -0.1169204354E-03       4    7    1        -0.6666641923E-02      0.1434847085E-01
          0                10           1             4    7     1      -0.4756278760E-04       4    7    1        -0.2712782302E-02      0.5785759925E-02

    ------------------------------------------------
       NWT REQUIRED           10 OUTER ITERATIONS 
       AND A TOTAL OF         19 INNER ITERATIONS.
    ------------------------------------------------

 NO OUTPUT CONTROL FOR STRESS PERIOD   20   TIME STEP   24
 
 SOLVING FOR HEAD 
                                                   Max.-Head-Change                         Max.-Flux-Residual
  Residual-Control   Outer-Iter.   Inner-Iter.     Column Row Layer    Maximum-Head-Change  Column Row Layer    Maximum-Flux-Residual          L2-NORM 
          0                 1           2             5    8     1       0.4885049193E-01       5    8    1         0.2626528116E+01      0.5856400263E+01
          0                 2           2             4    7     1      -0.1016475794E+00       4    7    1        -0.5469835579E+01      0.1283797695E+02
          0                 3           2             5    8     1       0.1497507655E-01       5    8    1         0.8507887486E+00      0.1876913593E+01
          0                 4           2             4    7     1      -0.1032511505E-01       4    7    1        -0.5876875314E+00      0.1333765454E+01
          0                 5           2             4    7     1      -0.4208968428E-02       4    7    1        -0.2396584664E+00      0.5377090842E+00
          0                 6           2             4    7     1      -0.1714713600E-02       4    7    1        -0.9767106019E-01      0.2167522352E+00
          0                 7           2             4    7     1      -0.6982924339E-03       4    7    1        -0.3978890305E-01      0.8738078660E-01
          0                 8           2             4    7     1      -0.2842654196E-03       4    7    1        -0.1620288438E-01      0.3522942826E-01
          0                 9           2             4    7     1      -0.1156799900E-03       4    7    1        -0.6595745125E-02      0.1420461132E-01
          0                10           1             4    7     1      -0.4705938352E-04       4    7    1        -0.2684003706E-02      0.5727753279E-02

    ------------------------------------------------
       NWT REQUIRED           10 OUTER ITERATIONS 
       AND A TOTAL OF         19 INNER ITERATIONS.
    ------------------------------------------------

 NO OUTPUT CONTROL FOR STRESS PERIOD   20   TIME STEP   25
 
 SOLVING FOR HEAD 
                                                   Max.-Head-Change                         Max.-Flux-Residual
  Residual-Control   Outer-Iter.   Inner-Iter.     Column Row Layer    Maximum-Head-Change  Column Row Layer    Maximum-Flux-Residual          L2-NORM 
          0                 1           2             5    8     1       0.4982599645E-01       5    8    1         0.2679271292E+01      0.5964380955E+01
          0                 2           2             4    7     1      -0.1010770612E+00       4    7    1        -0.5438968125E+01      0.1277817489E+02
          0                 3           2             5    8     1       0.1504166351E-01       5    8    1         0.8544957525E+00      0.1891362052E+01
          0                 4           2             4    7     1      -0.1021507449E-01       4    7    1        -0.5814047260E+00      0.1320644851E+01
          0                 5           2             4    7     1      -0.4164252350E-02       4    7    1        -0.2371046236E+00      0.5324176242E+00
          0                 6           2             4    7     1      -0.1696534907E-02       4    7    1        -0.9663255682E-01      0.2146163955E+00
          0                 7           2             4    7     1      -0.6909110824E-03       4    7    1        -0.3936711583E-01      0.8651958857E-01
          0                 8           2             4    7     1      -0.2812691029E-03       4    7    1        -0.1603162580E-01      0.3488217131E-01
          0                 9           2             4    7     1      -0.1144640186E-03       4    7    1        -0.6526228266E-02      0.1406458397E-01
          0                10           1             4    7     1      -0.4656604174E-04       4    7    1        -0.2655793131E-02      0.5671287542E-02

    ------------------------------------------------
       NWT REQUIRED           10 OUTER ITERATIONS 
       AND A TOTAL OF         19 INNER ITERATIONS.
    ------------------------------------------------

 NO OUTPUT CONTROL FOR STRESS PERIOD   20   TIME STEP   26
 
 SOLVING FOR HEAD 
                                                   Max.-Head-Change                         Max.-Flux-Residual
  Residual-Control   Outer-Iter.   Inner-Iter.     Column Row Layer    Maximum-Head-Change  Column Row Layer    Maximum-Flux-Residual          L2-NORM 
          0                 1           2             5    8     1       0.5075003397E-01       5    8    1         0.2729198457E+01      0.6072474683E+01
          0                 2           2             4    7     1      -0.1005220556E+00       4    7    1        -0.5408921318E+01      0.1272097386E+02
          0                 3           2             5    8     1       0.1510223286E-01       5    8    1         0.8578624208E+00      0.1904882195E+01
          0                 4           2             4    7     1      -0.1010733325E-01       4    7    1        -0.5752511583E+00      0.1307906770E+01
          0                 5           2             4    7     1      -0.4120476203E-02       4    7    1        -0.2346036830E+00      0.5272787483E+00
          0                 6           2             4    7     1      -0.1678760186E-02       4    7    1        -0.9561682630E-01      0.2125442231E+00
          0                 7           2             4    7     1      -0.6836958784E-03       4    7    1        -0.3895470554E-01      0.8568398970E-01
          0                 8           2             4    7     1      -0.2783410421E-03       4    7    1        -0.1586422354E-01      0.3454520822E-01
          0                 9           2             4    7     1      -0.1132760589E-03       4    7    1        -0.6458295574E-02      0.1392869753E-01
          0                10           1             4    7     1      -0.4608418438E-04       4    7    1        -0.2628232631E-02      0.5616487576E-02

    ------------------------------------------------
       NWT REQUIRED           10 OUTER ITERATIONS 
       AND A TOTAL OF         19 INNER ITERATIONS.
    ------------------------------------------------

 NO OUTPUT CONTROL FOR STRESS PERIOD   20   TIME STEP   27
 
 SOLVING FOR HEAD 
                                                   Max.-Head-Change                         Max.-Flux-Residual
  Residual-Control   Outer-Iter.   Inner-Iter.     Column Row Layer    Maximum-Head-Change  Column Row Layer    Maximum-Flux-Residual          L2-NORM 
          0                 1           2             5    8     1       0.5162634638E-01       5    8    1         0.2776516075E+01      0.6180030666E+01
          0                 2           2             4    7     1      -0.9998256142E-01       4    7    1        -0.5379697777E+01      0.1266623173E+02
          0                 3           2             5    8     1       0.1515716427E-01       5    8    1         0.8609104492E+00      0.1917519794E+01
          0                 4           2             4    7     1      -0.1000184129E-01       4    7    1        -0.5692243219E+00      0.1295526255E+01
          0                 5           2             4    7     1      -0.4077634012E-02       4    7    1        -0.2321554325E+00      0.5222848067E+00
          0                 6           2             4    7     1      -0.1661369308E-02       4    7    1        -0.9462277467E-01      0.2105303307E+00
          0                 7           2             4    7     1      -0.6766382569E-03       4    7    1        -0.3855120446E-01      0.8487183025E-01
          0                 8           2             4    7     1      -0.2754776105E-03       4    7    1        -0.1570047869E-01      0.3421767408E-01
          0                 9           1             4    7     1      -0.1121145807E-03       4    7    1        -0.6391862792E-02      0.1379660416E-01
          0                10           1             4    7     1      -0.4561316831E-04       4    7    1        -0.2601286718E-02      0.5563213716E-02

    ------------------------------------------------
       NWT REQUIRED           10 OUTER ITERATIONS 
       AND A TOTAL OF         18 INNER ITERATIONS.
    ------------------------------------------------

 NO OUTPUT CONTROL FOR STRESS PERIOD   20   TIME STEP   28
 
 SOLVING FOR HEAD 
                                                   Max.-Head-Change                         Max.-Flux-Residual
  Residual-Control   Outer-Iter.   Inner-Iter.     Column Row Layer    Maximum-Head-Change  Column Row Layer    Maximum-Flux-Residual          L2-NORM 
          0                 1           2             5    8     1       0.5245806876E-01       5    8    1         0.2821396829E+01      0.6286491386E+01
          0                 2           2             4    7     1      -0.9945866731E-01       4    7    1        -0.5351305023E+01      0.1261382673E+02
          0                 3           2             5    8     1       0.1520683286E-01       5    8    1         0.8636612130E+00      0.1929315373E+01
          0                 4           2             4    7     1      -0.9898629951E-02       4    7    1        -0.5633263400E+00      0.1283490840E+01
          0                 5           2             4    7     1      -0.4035736203E-02       4    7    1        -0.2297605953E+00      0.5174308581E+00
          0                 6           2             4    7     1      -0.1644365622E-02       4    7    1        -0.9365064222E-01      0.2085727479E+00
          0                 7           2             4    7     1      -0.6697392390E-03       4    7    1        -0.3815668964E-01      0.8408232391E-01
          0                 8           2             4    7     1      -0.2726790918E-03       4    7    1        -0.1554041462E-01      0.3389925449E-01
          0                 9           1             4    7     1      -0.1109796486E-03       4    7    1        -0.6326936411E-02      0.1366817861E-01
          0                10           1             4    7     1      -0.4515300044E-04       4    7    1        -0.2574956803E-02      0.5511416086E-02

    ------------------------------------------------
       NWT REQUIRED           10 OUTER ITERATIONS 
       AND A TOTAL OF         18 INNER ITERATIONS.
    ------------------------------------------------

 NO OUTPUT CONTROL FOR STRESS PERIOD   20   TIME STEP   29
 
 SOLVING FOR HEAD 
                                                   Max.-Head-Change                         Max.-Flux-Residual
  Residual-Control   Outer-Iter.   Inner-Iter.     Column Row Layer    Maximum-Head-Change  Column Row Layer    Maximum-Flux-Residual          L2-NORM 
          0                 1           2             5    8     1       0.5324441543E-01       5    8    1         0.2863998933E+01      0.6325349359E+01
          0                 2           2             4    7     1      -0.9895018464E-01       4    7    1        -0.5323733648E+01      0.1252498405E+02
          0                 3           2             4    7     1      -0.1227725539E-01       4    7    1        -0.6639240730E+00      0.1354311324E+01
          0                 4           2             4    7     1      -0.1988591510E-01       4    7    1        -0.1069855489E+01      0.2510416887E+01
          0                 5           2             4    7     1      -0.7448991232E-02       4    7    1        -0.4009553952E+00      0.9268044125E+00
          0                 6           2             4    7     1      -0.2788245347E-02       4    7    1        -0.1501548860E+00      0.3421733512E+00
          0                 7           2             4    7     1      -0.1043073266E-02       4    7    1        -0.5619814934E-01      0.1263485726E+00
          0                 8           2             4    7     1      -0.3899972606E-03       4    7    1        -0.2102117484E-01      0.4666103047E-01
          0                 9           2             4    7     1      -0.1457414474E-03       4    7    1        -0.7858810766E-02      0.1723426028E-01
          0                10           1             4    7     1      -0.5443654703E-04       4    7    1        -0.2936522269E-02      0.6366199624E-02

    ------------------------------------------------
       NWT REQUIRED           10 OUTER ITERATIONS 
       AND A TOTAL OF         19 INNER ITERATIONS.
    ------------------------------------------------

 NO OUTPUT CONTROL FOR STRESS PERIOD   20   TIME STEP   30



 STREAM LISTING     PERIOD     20   STEP       30

 LAYER ROW COL. STREAM  RCH.  FLOW INTO     FLOW TO   FLOW OUT OF   OVRLND.     DIRECT     STREAM       STREAM     STREAM     STREAM   STREAMBED  STREAMBED
                SEG.NO.  NO.  STRM. RCH.    AQUIFER    STRM. RCH.    RUNOFF     PRECIP       ET          HEAD       DEPTH      WIDTH   CONDCTNC.   GRADIENT

   1    1    1     1     1    3.2276E+01  2.7609E-01   3.2000E+01  0.000E+00  0.000E+00  0.000E+00  1.09432E+03  1.269E+00  1.437E+01  6.467E-02  1.423E+00
   1    2    2     1     2    3.2000E+01  4.2738E-01   3.1573E+01  0.000E+00  0.000E+00  0.000E+00  1.08932E+03  1.266E+00  1.431E+01  1.002E-01  1.422E+00
   1    3    3     1     3    3.1573E+01  3.6428E-01   3.1209E+01  0.000E+00  0.000E+00  0.000E+00  1.08368E+03  1.263E+00  1.424E+01  8.546E-02  1.421E+00
   1    3    4     1     4    3.1209E+01  3.3528E-01   3.0873E+01  0.000E+00  0.000E+00  0.000E+00  1.07867E+03  1.259E+00  1.418E+01  7.871E-02  1.420E+00
   1    4    5     2     1    2.8873E+01  3.3633E-01   2.8537E+01  0.000E+00  0.000E+00  0.000E+00  1.07325E+03  1.312E+00  1.200E+01  7.800E-02  1.437E+00
   1    5    6     2     2    2.8537E+01  2.5823E-01   2.8279E+01  0.000E+00  0.000E+00  0.000E+00  1.06781E+03  1.304E+00  1.200E+01  6.000E-02  1.435E+00
   1    6    6     2     3    2.8279E+01  2.5780E-01   2.8021E+01  0.000E+00  0.000E+00  0.000E+00  1.06309E+03  1.297E+00  1.200E+01  6.000E-02  1.432E+00
   1    7    6     2     4    2.8021E+01  2.5737E-01   2.7764E+01  0.000E+00  0.000E+00  0.000E+00  1.05836E+03  1.290E+00  1.200E+01  6.000E-02  1.430E+00
   1    8    6     2     5    2.7764E+01  2.5694E-01   2.7507E+01  0.000E+00  0.000E+00  0.000E+00  1.05364E+03  1.282E+00  1.200E+01  6.000E-02  1.427E+00
   1    3    5     3     1    2.0000E+00  2.8252E-01   1.7175E+00  0.000E+00  0.000E+00  0.000E+00  1.07555E+03  1.909E+00  9.636E+00  7.227E-02  1.955E+00
   1    3    6     3     2    1.7175E+00  2.4905E-01   1.4684E+00  0.000E+00  0.000E+00  0.000E+00  1.07264E+03  1.727E+00  8.909E+00  6.682E-02  1.864E+00
   1    3    7     3     3    1.4684E+00  1.9718E-01   1.2712E+00  0.000E+00  0.000E+00  0.000E+00  1.06987E+03  1.555E+00  8.218E+00  5.547E-02  1.777E+00
   1    4    8     3     4    1.2712E+00  2.2567E-01   1.0456E+00  0.000E+00  0.000E+00  0.000E+00  1.06682E+03  1.364E+00  7.455E+00  6.709E-02  1.682E+00
   1    5    8     3     5    1.0456E+00  1.5790E-01   8.8768E-01  0.000E+00  0.000E+00  0.000E+00  1.06362E+03  1.164E+00  6.655E+00  4.991E-02  1.582E+00
   1    6    8     3     6    8.8768E-01  5.5980E-02   8.3170E-01  0.000E+00  0.000E+00  0.000E+00  1.06158E+03  1.036E+00  6.145E+00  1.844E-02  1.518E+00
   1    5   10     4     1    1.0000E+01  9.0919E-02   9.9091E+00  0.000E+00  0.000E+00  0.000E+00  1.07836E+03  6.368E-01  1.000E+01  2.500E-02  1.212E+00
   1    5    9     4     2    9.9091E+00  1.8158E-01   9.7275E+00  0.000E+00  0.000E+00  0.000E+00  1.07154E+03  6.315E-01  1.000E+01  5.000E-02  1.211E+00
   1    6    8     4     3    9.7275E+00  1.2689E-01   9.6006E+00  0.000E+00  0.000E+00  0.000E+00  1.06381E+03  6.256E-01  1.000E+01  3.500E-02  1.209E+00
   1    6    8     5     1    1.0432E+01  2.2686E-01   1.0205E+01  0.000E+00  0.000E+00  0.000E+00  1.05868E+03  6.790E-01  1.542E+01  6.166E-02  1.226E+00
   1    7    7     5     2    1.0205E+01  2.7894E-01   9.9265E+00  0.000E+00  0.000E+00  0.000E+00  1.05417E+03  6.732E-01  1.519E+01  7.594E-02  1.224E+00
   1    8    7     5     3    9.9265E+00  1.9221E-01   9.7343E+00  0.000E+00  0.000E+00  0.000E+00  1.04992E+03  6.676E-01  1.497E+01  5.241E-02  1.223E+00
   1    8    6     5     4    9.7343E+00  1.3577E-01   9.5985E+00  0.000E+00  0.000E+00  0.000E+00  1.04691E+03  6.637E-01  1.482E+01  3.706E-02  1.221E+00
   1    9    6     6     1    9.5985E+00  2.2097E-01   9.3776E+00  0.000E+00  0.000E+00  0.000E+00  1.04341E+03  6.828E-01  1.200E+01  6.000E-02  1.228E+00
   1   10    7     6     2    9.3776E+00  2.2039E-01   9.1572E+00  0.000E+00  0.000E+00  0.000E+00  1.03885E+03  6.732E-01  1.200E+01  6.000E-02  1.224E+00
   1   11    7     6     3    9.1572E+00  2.1981E-01   8.9374E+00  0.000E+00  0.000E+00  0.000E+00  1.03430E+03  6.636E-01  1.200E+01  6.000E-02  1.221E+00
   1   12    7     6     4    8.9374E+00  2.1923E-01   8.7181E+00  0.000E+00  0.000E+00  0.000E+00  1.02974E+03  6.539E-01  1.200E+01  6.000E-02  1.218E+00
   1   13    7     6     5    8.7181E+00 -1.0186E-01   8.8200E+00  0.000E+00  0.000E+00  0.000E+00  1.02656E+03  6.512E-01  1.200E+01  2.400E-01 -1.415E-01
   1   14    9     7     1    1.5000E+02  1.3429E+00   1.4866E+02  0.000E+00  0.000E+00  0.000E+00  1.03987E+03  2.288E+00  5.529E+01  5.593E-01  8.003E-01
   1   13    8     7     2    1.4866E+02  1.8574E+00   1.4680E+02  0.000E+00  0.000E+00  0.000E+00  1.03478E+03  2.279E+00  5.526E+01  6.148E-01  1.007E+00
   1   13    7     7     3    1.4680E+02  1.5105E+00   1.4529E+02  0.000E+00  0.000E+00  0.000E+00  1.02969E+03  2.270E+00  5.522E+01  5.584E-01  9.016E-01
   1   13    6     8     1    1.5411E+02  8.6743E-01   1.5324E+02  0.000E+00  0.000E+00  0.000E+00  1.02472E+03  2.843E+00  4.122E+01  4.200E-01  6.884E-01
   1   13    5     8     2    1.5324E+02  1.4029E-01   1.5310E+02  0.000E+00  0.000E+00  0.000E+00  1.01846E+03  2.839E+00  4.117E+01  4.195E-01  1.115E-01
   1   13    4     8     3    1.5310E+02 -2.5355E+00   1.5564E+02  0.000E+00  0.000E+00  0.000E+00  1.01222E+03  2.847E+00  4.129E+01  4.207E+00 -2.009E-01
   1   13    3     8     4    1.5564E+02 -3.7029E+00   1.5934E+02  0.000E+00  0.000E+00  0.000E+00  1.00599E+03  2.869E+00  4.160E+01  4.239E+00 -2.912E-01
   1   13    2     8     5    1.5934E+02 -2.6209E+00   1.6196E+02  0.000E+00  0.000E+00  0.000E+00  9.99765E+02  2.890E+00  4.191E+01  4.271E+00 -2.046E-01
   1   13    1     8     6    1.6196E+02 -2.0192E+00   1.6398E+02  0.000E+00  0.000E+00  0.000E+00  9.94781E+02  2.906E+00  4.213E+01  2.576E+00 -2.613E-01
   1    8    6     9     1    2.7507E+01  0.0000E+00   2.7507E+01  0.000E+00  0.000E+00  0.000E+00  1.08291E+03  4.158E+00  4.000E+00  0.000E+00  2.386E+00
   1    8    5     9     2    2.7507E+01  0.0000E+00   2.7507E+01  0.000E+00  0.000E+00  0.000E+00  1.08241E+03  4.158E+00  4.000E+00  0.000E+00  2.386E+00





UNSATURATED ZONE PACKAGE VOLUMETRIC BUDGET FOR  TIME STEP    30 STRESS PERIOD   20
  ------------------------------------------------------------------------------



     CUMULATIVE VOLUMES      L**3       RATES FOR THIS TIME STEP      L**3/T
     ------------------                 ------------------------

           IN:                                      IN:
           ---                                      ---
        INFILTRATION =  2656765876.7759          INFILTRATION =          60.8164

          OUT:                                     OUT:
          ----                                     ----
              UZF ET =   696282155.3069                UZF ET =          60.8175
        UZF RECHARGE =  1543034135.1484          UZF RECHARGE =           9.8127

            IN - OUT =   417449586.3206              IN - OUT =          -9.8137

          STORAGE:                                 STORAGE:
          --------                                 --------
      STORAGE CHANGE =   417446208.4470        STORAGE CHANGE =          -9.8137

 PERCENT DISCREPANCY IS DIFFERENCE BETWEEN IN-OUT MINUS CHANGE IN STORAGE
 DIVIDED BY THE AVERAGE OF IN AND OUT TIMES 100

 PERCENT DISCREPANCY =           0.00     PERCENT DISCREPANCY =          -0.00






1
  VOLUMETRIC BUDGET FOR AGRICULTURAL FIELDS AT  END OF TIME STEP   30, STRESS PERIOD  20
  ------------------------------------------------------------------------------

     CUMULATIVE VOLUMES      L**3       RATES FOR THIS TIME STEP      L**3/T
     ------------------                 ------------------------

           IN:                                      IN:
           ---                                      ---
           AG WELLS      =  1674866304.0000             AG WELLS      =          32.4617
      DIVERSION SEGMENTS =   939458560.0000        DIVERSION SEGMENTS =          27.5067
           GW IRRIGATION =           0.0000             GW IRRIGATION =           0.0000
           SW IRRIGATION =           0.0000             SW IRRIGATION =           0.0000
        SYSTEM LOSSES GW =           0.0000          SYSTEM LOSSES GW =           0.0000
        SYSTEM LOSSES SW =           0.0000          SYSTEM LOSSES SW =           0.0000

                TOTAL IN =  2614324736.0000                  TOTAL IN =          59.9684

          OUT:                                     OUT:
          ----                                     ----
           AG WELLS      =           0.0000             AG WELLS      =           0.0000
      DIVERSION SEGMENTS =           0.0000        DIVERSION SEGMENTS =           0.0000
           GW IRRIGATION =  1674866304.0000             GW IRRIGATION =          32.4617
           SW IRRIGATION =   939476800.0000             SW IRRIGATION =          27.5073
        SYSTEM LOSSES GW =           0.0000          SYSTEM LOSSES GW =           0.0000
        SYSTEM LOSSES SW =           0.0000          SYSTEM LOSSES SW =           0.0000

               TOTAL OUT =  2614343168.0000                 TOTAL OUT =          59.9689

                IN - OUT =      -18432.0000                  IN - OUT =      -5.4932E-04

     PERCENT DISCREPANCY =          -0.00         PERCENT DISCREPANCY =          -0.00



1
  VOLUMETRIC BUDGET FOR ENTIRE MODEL AT END OF TIME STEP   30, STRESS PERIOD  20
  ------------------------------------------------------------------------------

     CUMULATIVE VOLUMES      L**3       RATES FOR THIS TIME STEP      L**3/T
     ------------------                 ------------------------

           IN:                                      IN:
           ---                                      ---
             STORAGE     =  1707301248.0000               STORAGE     =          31.8123
       CONSTANT HEAD     =           0.0000         CONSTANT HEAD     =           0.0000
     HEAD DEP BOUNDS     =    14310495.0000       HEAD DEP BOUNDS     =           0.2862
      STREAM LEAKAGE     =   602185216.0000        STREAM LEAKAGE     =          11.7700
        UZF RECHARGE     =  1543033984.0000          UZF RECHARGE     =           9.8127
               GW ET     =           0.0000                 GW ET     =           0.0000
     SURFACE LEAKAGE     =           0.0000       SURFACE LEAKAGE     =           0.0000
           AG WELLS      =           0.0000             AG WELLS      =           0.0000

                TOTAL IN =  3866830848.0000                  TOTAL IN =          53.6812

          OUT:                                     OUT:
          ----                                     ----
             STORAGE     =  1637189120.0000               STORAGE     =           9.9574
       CONSTANT HEAD     =           0.0000         CONSTANT HEAD     =           0.0000
     HEAD DEP BOUNDS     =    14503457.0000       HEAD DEP BOUNDS     =           0.2875
      STREAM LEAKAGE     =   540179712.0000        STREAM LEAKAGE     =          10.9804
        UZF RECHARGE     =           0.0000          UZF RECHARGE     =           0.0000
               GW ET     =      106432.0312                 GW ET     =           0.0000
     SURFACE LEAKAGE     =           0.0000       SURFACE LEAKAGE     =           0.0000
           AG WELLS      =  1674866304.0000             AG WELLS      =          32.4617

               TOTAL OUT =  3866845184.0000                 TOTAL OUT =          53.6870

                IN - OUT =      -14336.0000                  IN - OUT =      -5.7373E-03

     PERCENT DISCREPANCY =          -0.00         PERCENT DISCREPANCY =          -0.01






         TIME SUMMARY AT END OF TIME STEP   30 IN STRESS PERIOD   20
                    SECONDS     MINUTES      HOURS       DAYS        YEARS
                    -----------------------------------------------------------
   TIME STEP LENGTH  87667.      1461.1      24.352      1.0147     2.77799E-03
 STRESS PERIOD TIME 2.63000E+06  43833.      730.56      30.440     8.33397E-02
         TOTAL TIME 5.00565E+07 8.34276E+05  13905.      579.36      1.5862    
1
1
                            STRESS PERIOD NO.   21, LENGTH =   2630000.    
                            -----------------------------------------------

                              NUMBER OF TIME STEPS =    30

                               MULTIPLIER FOR DELT =     1.000

                            INITIAL TIME STEP SIZE =   87666.66    

 REUSING NON-PARAMETER GHB CELLS FROM LAST STRESS PERIOD

      2 GHB CELLS

 REUSING STREAM SEGMENT DATA FROM LAST STRESS PERIOD



            AREAL INFILTRATION RATE
 READING ON UNIT   19 WITH FORMAT: (FREE)              

            1           2           3           4           5           6           7           8           9          10
 ........................................................................................................................
   1   1.0000E-10  2.0000E-10   0.000       0.000       0.000       0.000       0.000       0.000       0.000       0.000    
   2   2.0000E-10  1.0000E-10  2.0000E-10   0.000       0.000      8.0000E-10  8.0000E-10  5.0000E-10   0.000       0.000    
   3    0.000      5.0000E-10  1.0000E-10  1.0000E-10  8.0000E-10  8.0000E-10  5.0000E-10  5.0000E-10   0.000       0.000    
   4   8.0000E-10  5.0000E-10  1.0000E-10  1.0000E-10  1.0000E-10  1.0000E-10  1.0000E-10  1.0000E-10  2.0000E-10   0.000    
   5   8.0000E-10  5.0000E-10  1.0000E-10  1.0000E-10  1.0000E-10  1.0000E-10  1.0000E-10  1.0000E-10  1.0000E-10  1.0000E-10
   6   8.0000E-10  5.0000E-10  5.0000E-10  2.0000E-10  2.0000E-10  1.0000E-10  1.0000E-10  1.0000E-10  1.0000E-10  5.0000E-10
   7   8.0000E-10  5.0000E-10  5.0000E-10  2.0000E-10  2.0000E-10  1.0000E-10  1.0000E-10  2.0000E-10  2.0000E-10   0.000    
   8    0.000      5.0000E-10  5.0000E-10  2.0000E-10  2.0000E-10  1.0000E-10  1.0000E-10  2.0000E-10  5.0000E-10   0.000    
   9    0.000      5.0000E-10  5.0000E-10  2.0000E-10  2.0000E-10  1.0000E-10  1.0000E-10  2.0000E-10  5.0000E-10   0.000    
  10    0.000      5.0000E-10  5.0000E-10  2.0000E-10  2.0000E-10  1.0000E-10  1.0000E-10  2.0000E-10  5.0000E-10  8.0000E-10
  11    0.000      1.0000E-10  1.0000E-10  1.0000E-10  1.0000E-10  1.0000E-10  1.0000E-10  2.0000E-10  5.0000E-10   0.000    
  12   1.0000E-10  1.0000E-10  1.0000E-10  1.0000E-10  1.0000E-10  1.0000E-10  1.0000E-10  1.0000E-10  2.0000E-10   0.000    
  13   1.0000E-10  1.0000E-10  2.0000E-10  2.0000E-10  2.0000E-10  2.0000E-10  2.0000E-10  1.0000E-10  1.0000E-10   0.000    
  14    0.000      2.0000E-10  5.0000E-10  5.0000E-10  5.0000E-10  5.0000E-10  5.0000E-10  2.0000E-10  1.0000E-10   0.000    
  15    0.000       0.000      8.0000E-10  8.0000E-10  8.0000E-10  8.0000E-10   0.000       0.000       0.000       0.000    

                  ET RATE =  3.250000E-07

 USING ET EXTINCTION DEPTH FROM PREVIOUS STRESS PERIOD. CURRENT PERIOD IS:      21

 USING EXTINCTION WATER CONTENT FROM PREVIOUS STRESS PERIOD. CURRENT PERIOD IS:      21

 USING AIR ENTRY PRESSURE FROM PREVIOUS STRESS PERIOD. CURRENT PERIOD IS:      21

 USING ROOT PRESSURE HEAD FROM PREVIOUS STRESS PERIOD. CURRENT PERIOD IS:      21

 USING ROOT ACTIVITY FROM PREVIOUS STRESS PERIOD. CURRENT PERIOD IS:      21

 PROCESSING AG STRESS PERIOD DATA

 READING AG STRESS PERIOD DATA

 READING IRRIGATION SEGMENT

 READING IRRIGATION WELL

 READING SUPPLEMENTAL WELL

 END PROCESSING AG STRESS PERIOD DATA OPTIONS
 
 SOLVING FOR HEAD 
                                                   Max.-Head-Change                         Max.-Flux-Residual
  Residual-Control   Outer-Iter.   Inner-Iter.     Column Row Layer    Maximum-Head-Change  Column Row Layer    Maximum-Flux-Residual          L2-NORM 
          0                 1           2             5    8     1       0.5520801497E-01       5    8    1         0.2971370023E+01      0.6447328849E+01
          0                 2           2             4    7     1      -0.1182537488E+00       4    7    1        -0.6360731474E+01      0.1500004036E+02
          0                 3           2             4    7     1      -0.4430017965E-01       4    7    1        -0.2384270632E+01      0.5536813380E+01
          0                 4           2             4    7     1      -0.1658553145E-01       4    7    1        -0.8930679577E+00      0.2044105945E+01
          0                 5           2             4    7     1      -0.6205837815E-02       4    7    1        -0.3343164393E+00      0.7547858432E+00
          0                 6           2             4    7     1      -0.2320766300E-02       4    7    1        -0.1250774538E+00      0.2787435723E+00
          0                 7           2             4    7     1      -0.8674298802E-03       4    7    1        -0.4676949267E-01      0.1029538263E+00
          0                 8           2             4    7     1      -0.3240564242E-03       4    7    1        -0.1747914218E-01      0.3803041688E-01
          0                 9           2             4    7     1      -0.1210043096E-03       4    7    1        -0.6529240003E-02      0.1404966348E-01
          0                10           1             4    7     1      -0.4516323570E-04       4    7    1        -0.2437815025E-02      0.5190899519E-02

    ------------------------------------------------
       NWT REQUIRED           10 OUTER ITERATIONS 
       AND A TOTAL OF         19 INNER ITERATIONS.
    ------------------------------------------------

 NO OUTPUT CONTROL FOR STRESS PERIOD   21   TIME STEP    1
 
 SOLVING FOR HEAD 
                                                   Max.-Head-Change                         Max.-Flux-Residual
  Residual-Control   Outer-Iter.   Inner-Iter.     Column Row Layer    Maximum-Head-Change  Column Row Layer    Maximum-Flux-Residual          L2-NORM 
          0                 1           2             5    8     1       0.5847582790E-01       5    8    1         0.3150331884E+01      0.6837525911E+01
          0                 2           2             4    7     1      -0.5916957136E-01       4    7    1        -0.3187566327E+01      0.7267952340E+01
          0                 3           2             5    8     1       0.1697128792E-01       5    8    1         0.9633153812E+00      0.2190611761E+01
          0                 4           2             5    8     1       0.2635345359E-02       5    8    1         0.1499432715E+00      0.3149919550E+00
          0                 5           2             5    8     1       0.1000969090E-02       5    8    1         0.5692275297E-01      0.1211493645E+00
          0                 6           2             5    8     1       0.3803959870E-03       5    8    1         0.2162130506E-01      0.4662546986E-01
          0                 7           2             5    8     1       0.1446365479E-03       5    8    1         0.8216926642E-02      0.1795127235E-01
          0                 8           1             5    8     1       0.5502268853E-04       5    8    1         0.3124375618E-02      0.6913941461E-02

    ------------------------------------------------
       NWT REQUIRED            8 OUTER ITERATIONS 
       AND A TOTAL OF         15 INNER ITERATIONS.
    ------------------------------------------------

 NO OUTPUT CONTROL FOR STRESS PERIOD   21   TIME STEP    2
 
 SOLVING FOR HEAD 
                                                   Max.-Head-Change                         Max.-Flux-Residual
  Residual-Control   Outer-Iter.   Inner-Iter.     Column Row Layer    Maximum-Head-Change  Column Row Layer    Maximum-Flux-Residual          L2-NORM 
          0                 1           2             5    8     1       0.5703726651E-01       5    8    1         0.3070079161E+01      0.6757099849E+01
          0                 2           2             4    7     1      -0.5883546203E-01       4    7    1        -0.3168664813E+01      0.7284224952E+01
          0                 3           2             4    7     1      -0.1395758255E-01       4    7    1        -0.7535415034E+00      0.1610778215E+01
          0                 4           2             4    7     1      -0.1989268792E-01       4    7    1        -0.1070005954E+01      0.2523985349E+01
          0                 5           2             4    7     1      -0.7452274331E-02       4    7    1        -0.4010590130E+00      0.9316505945E+00
          0                 6           2             4    7     1      -0.2790077094E-02       4    7    1        -0.1502274765E+00      0.3439484272E+00
          0                 7           2             4    7     1      -0.1043973083E-02       4    7    1        -0.5623737597E-01      0.1269995295E+00
          0                 8           2             4    7     1      -0.3904100732E-03       4    7    1        -0.2104013764E-01      0.4689995953E-01
          0                 9           2             4    7     1      -0.1459229063E-03       4    7    1        -0.7867427197E-02      0.1732203424E-01
          0                10           1             4    7     1      -0.5451400585E-04       4    7    1        -0.2940285547E-02      0.6398470267E-02

    ------------------------------------------------
       NWT REQUIRED           10 OUTER ITERATIONS 
       AND A TOTAL OF         19 INNER ITERATIONS.
    ------------------------------------------------

 NO OUTPUT CONTROL FOR STRESS PERIOD   21   TIME STEP    3
 
 SOLVING FOR HEAD 
                                                   Max.-Head-Change                         Max.-Flux-Residual
  Residual-Control   Outer-Iter.   Inner-Iter.     Column Row Layer    Maximum-Head-Change  Column Row Layer    Maximum-Flux-Residual          L2-NORM 
          0                 1           2             5    8     1       0.5767432844E-01       5    8    1         0.3104254217E+01      0.6857593935E+01
          0                 2           2             4    7     1      -0.5836891167E-01       4    7    1        -0.3143325706E+01      0.7241044663E+01
          0                 3           2             4    7     1      -0.1441104116E-01       4    7    1        -0.7777852709E+00      0.1676452680E+01
          0                 4           2             4    7     1      -0.2042954509E-01       4    7    1        -0.1098805393E+01      0.2596552288E+01
          0                 5           2             4    7     1      -0.7654006637E-02       4    7    1        -0.4118880962E+00      0.9584216691E+00
          0                 6           2             4    7     1      -0.2865821254E-02       4    7    1        -0.1542960493E+00      0.3538270391E+00
          0                 7           2             4    7     1      -0.1072391451E-02       4    7    1        -0.5776477466E-01      0.1306455220E+00
          0                 8           2             4    7     1      -0.4010648241E-03       4    7    1        -0.2161312117E-01      0.4824587736E-01
          0                 9           2             4    7     1      -0.1499149783E-03       4    7    1        -0.8082224494E-02      0.1781896591E-01
          0                10           1             4    7     1      -0.5600879525E-04       4    7    1        -0.3020754611E-02      0.6581973463E-02

    ------------------------------------------------
       NWT REQUIRED           10 OUTER ITERATIONS 
       AND A TOTAL OF         19 INNER ITERATIONS.
    ------------------------------------------------

 NO OUTPUT CONTROL FOR STRESS PERIOD   21   TIME STEP    4
 
 SOLVING FOR HEAD 
                                                   Max.-Head-Change                         Max.-Flux-Residual
  Residual-Control   Outer-Iter.   Inner-Iter.     Column Row Layer    Maximum-Head-Change  Column Row Layer    Maximum-Flux-Residual          L2-NORM 
          0                 1           2             5    8     1       0.5833304020E-01       5    8    1         0.3139645885E+01      0.6959865415E+01
          0                 2           2             4    7     1      -0.5791207956E-01       4    7    1        -0.3118525934E+01      0.7197957181E+01
          0                 3           2             4    7     1      -0.1434532611E-01       4    7    1        -0.7741488422E+00      0.1673802530E+01
          0                 4           2             4    7     1      -0.2038648954E-01       4    7    1        -0.1096451893E+01      0.2593108873E+01
          0                 5           2             4    7     1      -0.7639285067E-02       4    7    1        -0.4110822817E+00      0.9572920534E+00
          0                 6           2             4    7     1      -0.2860416718E-02       4    7    1        -0.1540002310E+00      0.3534086996E+00
          0                 7           2             4    7     1      -0.1070407354E-02       4    7    1        -0.5765617716E-01      0.1304906488E+00
          0                 8           2             4    7     1      -0.4003364248E-03       4    7    1        -0.2157325412E-01      0.4818856503E-01
          0                 9           2             4    7     1      -0.1496475673E-03       4    7    1        -0.8067588898E-02      0.1779776441E-01
          0                10           1             4    7     1      -0.5591062167E-04       4    7    1        -0.3015381685E-02      0.6574132909E-02

    ------------------------------------------------
       NWT REQUIRED           10 OUTER ITERATIONS 
       AND A TOTAL OF         19 INNER ITERATIONS.
    ------------------------------------------------

 NO OUTPUT CONTROL FOR STRESS PERIOD   21   TIME STEP    5
 
 SOLVING FOR HEAD 
                                                   Max.-Head-Change                         Max.-Flux-Residual
  Residual-Control   Outer-Iter.   Inner-Iter.     Column Row Layer    Maximum-Head-Change  Column Row Layer    Maximum-Flux-Residual          L2-NORM 
          0                 1           2             5    8     1       0.5896674174E-01       5    8    1         0.3173680312E+01      0.7059675757E+01
          0                 2           2             4    7     1      -0.5747375403E-01       4    7    1        -0.3094723346E+01      0.7157028073E+01
          0                 3           2             4    7     1      -0.1423103507E-01       4    7    1        -0.7679049584E+00      0.1664700892E+01
          0                 4           2             4    7     1      -0.2029492798E-01       4    7    1        -0.1091493103E+01      0.2583286263E+01
          0                 5           2             4    7     1      -0.7605509675E-02       4    7    1        -0.4092524881E+00      0.9536983015E+00
          0                 6           2             4    7     1      -0.2847867207E-02       4    7    1        -0.1533202132E+00      0.3520807484E+00
          0                 7           2             4    7     1      -0.1065745769E-02       4    7    1        -0.5740352831E-01      0.1300000251E+00
          0                 8           2             4    7     1      -0.3986053089E-03       4    7    1        -0.2147941252E-01      0.4800729257E-01
          0                 9           2             4    7     1      -0.1490048654E-03       4    7    1        -0.8032742307E-02      0.1773079043E-01
          0                10           1             4    7     1      -0.5567206667E-04       4    7    1        -0.3002445181E-02      0.6549388692E-02

    ------------------------------------------------
       NWT REQUIRED           10 OUTER ITERATIONS 
       AND A TOTAL OF         19 INNER ITERATIONS.
    ------------------------------------------------

 NO OUTPUT CONTROL FOR STRESS PERIOD   21   TIME STEP    6
 
 SOLVING FOR HEAD 
                                                   Max.-Head-Change                         Max.-Flux-Residual
  Residual-Control   Outer-Iter.   Inner-Iter.     Column Row Layer    Maximum-Head-Change  Column Row Layer    Maximum-Flux-Residual          L2-NORM 
          0                 1           2             5    8     1       0.5957257158E-01       5    8    1         0.3206200074E+01      0.7156585513E+01
          0                 2           2             4    7     1      -0.5704539604E-01       4    7    1        -0.3071458714E+01      0.7117177226E+01
          0                 3           2             4    7     1      -0.1412745683E-01       4    7    1        -0.7622379034E+00      0.1656918225E+01
          0                 4           2             4    7     1      -0.2020197125E-01       4    7    1        -0.1086460105E+01      0.2573241240E+01
          0                 5           2             4    7     1      -0.7570929673E-02       4    7    1        -0.4073797262E+00      0.9499871031E+00
          0                 6           2             4    7     1      -0.2835013791E-02       4    7    1        -0.1526239522E+00      0.3507093362E+00
          0                 7           2             4    7     1      -0.1060970375E-02       4    7    1        -0.5714474544E-01      0.1295066808E+00
          0                 8           2             4    7     1      -0.3968322727E-03       4    7    1        -0.2138327749E-01      0.4783830065E-01
          0                 9           2             4    7     1      -0.1483470869E-03       4    7    1        -0.7997053370E-02      0.1767308295E-01
          0                10           1             4    7     1      -0.5542826131E-04       4    7    1        -0.2989206966E-02      0.6529740370E-02

    ------------------------------------------------
       NWT REQUIRED           10 OUTER ITERATIONS 
       AND A TOTAL OF         19 INNER ITERATIONS.
    ------------------------------------------------

 NO OUTPUT CONTROL FOR STRESS PERIOD   21   TIME STEP    7
 
 SOLVING FOR HEAD 
                                                   Max.-Head-Change                         Max.-Flux-Residual
  Residual-Control   Outer-Iter.   Inner-Iter.     Column Row Layer    Maximum-Head-Change  Column Row Layer    Maximum-Flux-Residual          L2-NORM 
          0                 1           2             5    8     1       0.6015185551E-01       5    8    1         0.3237275840E+01      0.7250501069E+01
          0                 2           2             4    7     1      -0.5663110008E-01       4    7    1        -0.3048952210E+01      0.7080252388E+01
          0                 3           2             4    7     1      -0.1402895522E-01       4    7    1        -0.7568444752E+00      0.1650160736E+01
          0                 4           2             4    7     1      -0.2011111019E-01       4    7    1        -0.1081539196E+01      0.2563703170E+01
          0                 5           2             4    7     1      -0.7537125464E-02       4    7    1        -0.4055478289E+00      0.9467440170E+00
          0                 6           2             4    7     1      -0.2822464334E-02       4    7    1        -0.1519433923E+00      0.3496112905E+00
          0                 7           2             4    7     1      -0.1056315270E-02       4    7    1        -0.5689213583E-01      0.1291230278E+00
          0                 8           2             4    7     1      -0.3951067311E-03       4    7    1        -0.2128958819E-01      0.4769575747E-01
          0                 9           2             4    7     1      -0.1477078715E-03       4    7    1        -0.7962329506E-02      0.1762011544E-01
          0                10           1             4    7     1      -0.5519160216E-04       4    7    1        -0.2976345332E-02      0.6510070728E-02

    ------------------------------------------------
       NWT REQUIRED           10 OUTER ITERATIONS 
       AND A TOTAL OF         19 INNER ITERATIONS.
    ------------------------------------------------

 NO OUTPUT CONTROL FOR STRESS PERIOD   21   TIME STEP    8
 
 SOLVING FOR HEAD 
                                                   Max.-Head-Change                         Max.-Flux-Residual
  Residual-Control   Outer-Iter.   Inner-Iter.     Column Row Layer    Maximum-Head-Change  Column Row Layer    Maximum-Flux-Residual          L2-NORM 
          0                 1           2             5    8     1       0.6070642638E-01       5    8    1         0.3267012854E+01      0.7340388624E+01
          0                 2           2             4    7     1      -0.5623040710E-01       4    7    1        -0.3027180446E+01      0.7042719442E+01
          0                 3           2             4    7     1      -0.1393541360E-01       4    7    1        -0.7517191419E+00      0.1643988483E+01
          0                 4           2             4    7     1      -0.2002216734E-01       4    7    1        -0.1076722727E+01      0.2554363563E+01
          0                 5           2             4    7     1      -0.7504054558E-02       4    7    1        -0.4037564243E+00      0.9432941553E+00
          0                 6           2             4    7     1      -0.2810175293E-02       4    7    1        -0.1512775426E+00      0.3483348875E+00
          0                 7           2             4    7     1      -0.1051750158E-02       4    7    1        -0.5664472699E-01      0.1286510521E+00
          0                 8           2             4    7     1      -0.3934113995E-03       4    7    1        -0.2119768790E-01      0.4752122131E-01
          0                 9           2             4    7     1      -0.1470784595E-03       4    7    1        -0.7928203171E-02      0.1755557783E-01
          0                10           1             4    7     1      -0.5495798655E-04       4    7    1        -0.2963676336E-02      0.6486207893E-02

    ------------------------------------------------
       NWT REQUIRED           10 OUTER ITERATIONS 
       AND A TOTAL OF         19 INNER ITERATIONS.
    ------------------------------------------------

 NO OUTPUT CONTROL FOR STRESS PERIOD   21   TIME STEP    9
 
 SOLVING FOR HEAD 
                                                   Max.-Head-Change                         Max.-Flux-Residual
  Residual-Control   Outer-Iter.   Inner-Iter.     Column Row Layer    Maximum-Head-Change  Column Row Layer    Maximum-Flux-Residual          L2-NORM 
          0                 1           2             5    8     1       0.6123751422E-01       5    8    1         0.3295476006E+01      0.7427557096E+01
          0                 2           2             4    7     1      -0.5584302094E-01       4    7    1        -0.3006127420E+01      0.7006625280E+01
          0                 3           2             4    7     1      -0.1384672799E-01       4    7    1        -0.7468566525E+00      0.1638619176E+01
          0                 4           2             4    7     1      -0.1993514940E-01       4    7    1        -0.1072010486E+01      0.2545258995E+01
          0                 5           2             4    7     1      -0.7471699435E-02       4    7    1        -0.4020037798E+00      0.9399254536E+00
          0                 6           2             4    7     1      -0.2798152401E-02       4    7    1        -0.1506261055E+00      0.3470889462E+00
          0                 7           2             4    7     1      -0.1047284000E-02       4    7    1        -0.5640267695E-01      0.1281902588E+00
          0                 8           2             4    7     1      -0.3917528544E-03       4    7    1        -0.2110777993E-01      0.4735081480E-01
          0                 9           2             4    7     1      -0.1464627205E-03       4    7    1        -0.7894817443E-02      0.1749256310E-01
          0                10           1             4    7     1      -0.5472945340E-04       4    7    1        -0.2951282646E-02      0.6462906861E-02

    ------------------------------------------------
       NWT REQUIRED           10 OUTER ITERATIONS 
       AND A TOTAL OF         19 INNER ITERATIONS.
    ------------------------------------------------

 NO OUTPUT CONTROL FOR STRESS PERIOD   21   TIME STEP   10
 
 SOLVING FOR HEAD 
                                                   Max.-Head-Change                         Max.-Flux-Residual
  Residual-Control   Outer-Iter.   Inner-Iter.     Column Row Layer    Maximum-Head-Change  Column Row Layer    Maximum-Flux-Residual          L2-NORM 
          0                 1           2             5    8     1       0.6174623945E-01       5    8    1         0.3322726223E+01      0.7512028739E+01
          0                 2           2             4    7     1      -0.5546869593E-01       4    7    1        -0.2985777786E+01      0.6972900259E+01
          0                 3           2             4    7     1      -0.1376275841E-01       4    7    1        -0.7422502947E+00      0.1632000483E+01
          0                 4           2             4    7     1      -0.1984998709E-01       4    7    1        -0.1067399832E+01      0.2535696004E+01
          0                 5           2             4    7     1      -0.7440020234E-02       4    7    1        -0.4002884226E+00      0.9363915302E+00
          0                 6           2             4    7     1      -0.2786373653E-02       4    7    1        -0.1499882302E+00      0.3457838582E+00
          0                 7           2             4    7     1      -0.1042905334E-02       4    7    1        -0.5616551879E-01      0.1277082023E+00
          0                 8           2             4    7     1      -0.3901254254E-03       4    7    1        -0.2101962273E-01      0.4717275013E-01
          0                 9           2             4    7     1      -0.1458579648E-03       4    7    1        -0.7862053583E-02      0.1742678441E-01
          0                10           1             4    7     1      -0.5450476768E-04       4    7    1        -0.2939108185E-02      0.6438606433E-02

    ------------------------------------------------
       NWT REQUIRED           10 OUTER ITERATIONS 
       AND A TOTAL OF         19 INNER ITERATIONS.
    ------------------------------------------------

 NO OUTPUT CONTROL FOR STRESS PERIOD   21   TIME STEP   11
 
 SOLVING FOR HEAD 
                                                   Max.-Head-Change                         Max.-Flux-Residual
  Residual-Control   Outer-Iter.   Inner-Iter.     Column Row Layer    Maximum-Head-Change  Column Row Layer    Maximum-Flux-Residual          L2-NORM 
          0                 1           2             5    8     1       0.6223421591E-01       5    8    1         0.3348852224E+01      0.7593878834E+01
          0                 2           2             4    7     1      -0.5510693612E-01       4    7    1        -0.2966110017E+01      0.6940488801E+01
          0                 3           2             4    7     1      -0.1368334218E-01       4    7    1        -0.7378904251E+00      0.1626917353E+01
          0                 4           2             4    7     1      -0.1976664475E-01       4    7    1        -0.1062887309E+01      0.2526719100E+01
          0                 5           2             4    7     1      -0.7409023878E-02       4    7    1        -0.3986097419E+00      0.9330734798E+00
          0                 6           2             4    7     1      -0.2774852090E-02       4    7    1        -0.1493641252E+00      0.3445570315E+00
          0                 7           2             4    7     1      -0.1038625065E-02       4    7    1        -0.5593354991E-01      0.1273044308E+00
          0                 8           2             4    7     1      -0.3885364305E-03       4    7    1        -0.2093345639E-01      0.4703080982E-01
          0                 9           2             4    7     1      -0.1452685287E-03       4    7    1        -0.7830069857E-02      0.1737708971E-01
          0                10           1             4    7     1      -0.5428629775E-04       4    7    1        -0.2927245621E-02      0.6421209143E-02

    ------------------------------------------------
       NWT REQUIRED           10 OUTER ITERATIONS 
       AND A TOTAL OF         19 INNER ITERATIONS.
    ------------------------------------------------

 NO OUTPUT CONTROL FOR STRESS PERIOD   21   TIME STEP   12
 
 SOLVING FOR HEAD 
                                                   Max.-Head-Change                         Max.-Flux-Residual
  Residual-Control   Outer-Iter.   Inner-Iter.     Column Row Layer    Maximum-Head-Change  Column Row Layer    Maximum-Flux-Residual          L2-NORM 
          0                 1           2             5    8     1       0.6276126931E-01       5    8    1         0.3373716219E+01      0.7673036832E+01
          0                 2           2             4    7     1      -0.5475746328E-01       4    7    1        -0.2947107279E+01      0.6910148213E+01
          0                 3           2             4    7     1      -0.1360838143E-01       4    7    1        -0.7337718025E+00      0.1622560333E+01
          0                 4           2             4    7     1      -0.1968507519E-01       4    7    1        -0.1058470702E+01      0.2518030147E+01
          0                 5           2             4    7     1      -0.7378688613E-02       4    7    1        -0.3969662862E+00      0.9302626215E+00
          0                 6           2             4    7     1      -0.2763586097E-02       4    7    1        -0.1487533715E+00      0.3435729809E+00
          0                 7           2             4    7     1      -0.1034443436E-02       4    7    1        -0.5570676103E-01      0.1269117987E+00
          0                 8           2             4    7     1      -0.3869850042E-03       4    7    1        -0.2084928744E-01      0.4688563476E-01
          0                 9           2             4    7     1      -0.1446931590E-03       4    7    1        -0.7798845143E-02      0.1732325946E-01
          0                10           1             4    7     1      -0.5407298863E-04       4    7    1        -0.2915666427E-02      0.6401269188E-02

    ------------------------------------------------
       NWT REQUIRED           10 OUTER ITERATIONS 
       AND A TOTAL OF         19 INNER ITERATIONS.
    ------------------------------------------------

 NO OUTPUT CONTROL FOR STRESS PERIOD   21   TIME STEP   13
 
 SOLVING FOR HEAD 
                                                   Max.-Head-Change                         Max.-Flux-Residual
  Residual-Control   Outer-Iter.   Inner-Iter.     Column Row Layer    Maximum-Head-Change  Column Row Layer    Maximum-Flux-Residual          L2-NORM 
          0                 1           2             5    8     1       0.6318880929E-01       5    6    1         0.3397081501E+01      0.7749156728E+01
          0                 2           2             4    7     1      -0.5441989291E-01       4    7    1        -0.2928749860E+01      0.6879746677E+01
          0                 3           2             4    7     1      -0.1353771534E-01       4    7    1        -0.7298863680E+00      0.1618461469E+01
          0                 4           2             4    7     1      -0.1960525030E-01       4    7    1        -0.1054148399E+01      0.2509553735E+01
          0                 5           2             4    7     1      -0.7348963482E-02       4    7    1        -0.3953565423E+00      0.9268872404E+00
          0                 6           2             4    7     1      -0.2752552647E-02       4    7    1        -0.1481558097E+00      0.3423319788E+00
          0                 7           2             4    7     1      -0.1030359772E-02       4    7    1        -0.5548556605E-01      0.1264554898E+00
          0                 8           2             4    7     1      -0.3854672693E-03       4    7    1        -0.2076707067E-01      0.4671711355E-01
          0                 9           2             4    7     1      -0.1441291563E-03       4    7    1        -0.7768289795E-02      0.1726100345E-01
          0                10           1             4    7     1      -0.5386343035E-04       4    7    1        -0.2904312302E-02      0.6378269687E-02

    ------------------------------------------------
       NWT REQUIRED           10 OUTER ITERATIONS 
       AND A TOTAL OF         19 INNER ITERATIONS.
    ------------------------------------------------

 NO OUTPUT CONTROL FOR STRESS PERIOD   21   TIME STEP   14
 
 SOLVING FOR HEAD 
                                                   Max.-Head-Change                         Max.-Flux-Residual
  Residual-Control   Outer-Iter.   Inner-Iter.     Column Row Layer    Maximum-Head-Change  Column Row Layer    Maximum-Flux-Residual          L2-NORM 
          0                 1           2             5    8     1       0.6360171078E-01       5    6    1         0.3420611457E+01      0.7822874668E+01
          0                 2           2             4    7     1      -0.5409389186E-01       4    7    1        -0.2911019677E+01      0.6850456738E+01
          0                 3           2             4    7     1      -0.1347126028E-01       4    7    1        -0.7262295622E+00      0.1615031343E+01
          0                 4           2             4    7     1      -0.1952703103E-01       4    7    1        -0.1049913710E+01      0.2501223938E+01
          0                 5           2             4    7     1      -0.7319877991E-02       4    7    1        -0.3937814667E+00      0.9238061828E+00
          0                 6           2             4    7     1      -0.2741758445E-02       4    7    1        -0.1475711250E+00      0.3411946812E+00
          0                 7           2             4    7     1      -0.1026330723E-02       4    7    1        -0.5526728637E-01      0.1260325085E+00
          0                 8           2             4    7     1      -0.3839703602E-03       4    7    1        -0.2068595646E-01      0.4656067414E-01
          0                 9           2             4    7     1      -0.1435731569E-03       4    7    1        -0.7738155504E-02      0.1720314649E-01
          0                10           1             4    7     1      -0.5365696669E-04       4    7    1        -0.2893120213E-02      0.6356872793E-02

    ------------------------------------------------
       NWT REQUIRED           10 OUTER ITERATIONS 
       AND A TOTAL OF         19 INNER ITERATIONS.
    ------------------------------------------------

 NO OUTPUT CONTROL FOR STRESS PERIOD   21   TIME STEP   15
 
 SOLVING FOR HEAD 
                                                   Max.-Head-Change                         Max.-Flux-Residual
  Residual-Control   Outer-Iter.   Inner-Iter.     Column Row Layer    Maximum-Head-Change  Column Row Layer    Maximum-Flux-Residual          L2-NORM 
          0                 1           2             5    6     1       0.6401390627E-01       5    6    1         0.3443241651E+01      0.7894236307E+01
          0                 2           2             4    7     1      -0.5377904219E-01       4    7    1        -0.2893892913E+01      0.6822410447E+01
          0                 3           2             4    7     1      -0.1340874596E-01       4    7    1        -0.7227870909E+00      0.1611202086E+01
          0                 4           2             4    7     1      -0.1945045747E-01       4    7    1        -0.1045768797E+01      0.2492767314E+01
          0                 5           2             4    7     1      -0.7291370388E-02       4    7    1        -0.3922380518E+00      0.9206763152E+00
          0                 6           2             4    7     1      -0.2731148853E-02       4    7    1        -0.1469966199E+00      0.3400367799E+00
          0                 7           2             4    7     1      -0.1022386384E-02       4    7    1        -0.5505366464E-01      0.1256045188E+00
          0                 8           2             4    7     1      -0.3825043053E-03       4    7    1        -0.2060654288E-01      0.4640247814E-01
          0                 9           2             4    7     1      -0.1430283661E-03       4    7    1        -0.7708640338E-02      0.1714467152E-01
          0                10           1             4    7     1      -0.5345456410E-04       4    7    1        -0.2882152914E-02      0.6335257985E-02

    ------------------------------------------------
       NWT REQUIRED           10 OUTER ITERATIONS 
       AND A TOTAL OF         19 INNER ITERATIONS.
    ------------------------------------------------

 NO OUTPUT CONTROL FOR STRESS PERIOD   21   TIME STEP   16
 
 SOLVING FOR HEAD 
                                                   Max.-Head-Change                         Max.-Flux-Residual
  Residual-Control   Outer-Iter.   Inner-Iter.     Column Row Layer    Maximum-Head-Change  Column Row Layer    Maximum-Flux-Residual          L2-NORM 
          0                 1           2             5    6     1       0.6442216807E-01       5    6    1         0.3465032240E+01      0.7963328539E+01
          0                 2           2             4    7     1      -0.5347505054E-01       4    7    1        -0.2877356369E+01      0.6795702958E+01
          0                 3           2             4    7     1      -0.1335016965E-01       4    7    1        -0.7195585813E+00      0.1608183865E+01
          0                 4           2             4    7     1      -0.1937540672E-01       4    7    1        -0.1041706469E+01      0.2484617745E+01
          0                 5           2             4    7     1      -0.7263482310E-02       4    7    1        -0.3907281525E+00      0.9176662192E+00
          0                 6           2             4    7     1      -0.2720752450E-02       4    7    1        -0.1464336377E+00      0.3389203168E+00
          0                 7           2             4    7     1      -0.1018521595E-02       4    7    1        -0.5484433691E-01      0.1251917055E+00
          0                 8           2             4    7     1      -0.3810679713E-03       4    7    1        -0.2052873188E-01      0.4624984213E-01
          0                 9           2             4    7     1      -0.1424946915E-03       4    7    1        -0.7679724027E-02      0.1708823524E-01
          0                10           1             4    7     1      -0.5325632280E-04       4    7    1        -0.2871409617E-02      0.6314391181E-02

    ------------------------------------------------
       NWT REQUIRED           10 OUTER ITERATIONS 
       AND A TOTAL OF         19 INNER ITERATIONS.
    ------------------------------------------------

 NO OUTPUT CONTROL FOR STRESS PERIOD   21   TIME STEP   17
 
 SOLVING FOR HEAD 
                                                   Max.-Head-Change                         Max.-Flux-Residual
  Residual-Control   Outer-Iter.   Inner-Iter.     Column Row Layer    Maximum-Head-Change  Column Row Layer    Maximum-Flux-Residual          L2-NORM 
          0                 1           2             5    6     1       0.6481527847E-01       5    6    1         0.3486007397E+01      0.8030191780E+01
          0                 2           2             4    7     1      -0.5318146079E-01       4    7    1        -0.2861384453E+01      0.6769957545E+01
          0                 3           2             4    7     1      -0.1329533922E-01       4    7    1        -0.7165337185E+00      0.1605515451E+01
          0                 4           2             4    7     1      -0.1930188317E-01       4    7    1        -0.1037727143E+01      0.2476613932E+01
          0                 5           2             4    7     1      -0.7236106286E-02       4    7    1        -0.3892461224E+00      0.9147030929E+00
          0                 6           2             4    7     1      -0.2710571921E-02       4    7    1        -0.1458823865E+00      0.3378247465E+00
          0                 7           2             4    7     1      -0.1014736726E-02       4    7    1        -0.5463935283E-01      0.1247866235E+00
          0                 8           2             4    7     1      -0.3796612209E-03       4    7    1        -0.2045252893E-01      0.4610006661E-01
          0                 9           2             4    7     1      -0.1419719658E-03       4    7    1        -0.7651402934E-02      0.1703285719E-01
          0                10           1             4    7     1      -0.5306213306E-04       4    7    1        -0.2860886611E-02      0.6293915802E-02

    ------------------------------------------------
       NWT REQUIRED           10 OUTER ITERATIONS 
       AND A TOTAL OF         19 INNER ITERATIONS.
    ------------------------------------------------

 NO OUTPUT CONTROL FOR STRESS PERIOD   21   TIME STEP   18
 
 SOLVING FOR HEAD 
                                                   Max.-Head-Change                         Max.-Flux-Residual
  Residual-Control   Outer-Iter.   Inner-Iter.     Column Row Layer    Maximum-Head-Change  Column Row Layer    Maximum-Flux-Residual          L2-NORM 
          0                 1           2             5    6     1       0.6518628703E-01       5    6    1         0.3506190147E+01      0.7529720516E+01
          0                 2           2             5    8     1      -0.6251050465E-01       5    8    1        -0.3460396505E+01      0.7112733729E+01
          0                 3           2             4    7     1      -0.1325364042E-01       4    7    1        -0.7140711401E+00      0.1550579607E+01
          0                 4           2             4    7     1      -0.1923351298E-01       4    7    1        -0.1034028852E+01      0.2423551381E+01
          0                 5           2             4    7     1      -0.7209718867E-02       4    7    1        -0.3878677214E+00      0.8606277555E+00
          0                 6           2             4    7     1      -0.2699788034E-02       4    7    1        -0.1453489643E+00      0.3126229272E+00
          0                 7           2             4    7     1      -0.1010066044E-02       4    7    1        -0.5441868357E-01      0.1145475160E+00
          0                 8           2             4    7     1      -0.3775669867E-03       4    7    1        -0.2035622960E-01      0.4210452083E-01
          0                 9           2             4    7     1      -0.1410197897E-03       4    7    1        -0.7608040089E-02      0.1549485941E-01
          0                10           1             4    7     1      -0.5262939368E-04       4    7    1        -0.2841141957E-02      0.5705008122E-02

    ------------------------------------------------
       NWT REQUIRED           10 OUTER ITERATIONS 
       AND A TOTAL OF         19 INNER ITERATIONS.
    ------------------------------------------------

 NO OUTPUT CONTROL FOR STRESS PERIOD   21   TIME STEP   19
 
 SOLVING FOR HEAD 
                                                   Max.-Head-Change                         Max.-Flux-Residual
  Residual-Control   Outer-Iter.   Inner-Iter.     Column Row Layer    Maximum-Head-Change  Column Row Layer    Maximum-Flux-Residual          L2-NORM 
          0                 1           2             5    6     1       0.6552217819E-01       5    6    1         0.3524868017E+01      0.7337757093E+01
          0                 2           2             5    8     1      -0.6863572850E-01       5    8    1        -0.3806965623E+01      0.7284407555E+01
          0                 3           2             4    7     1      -0.1321787236E-01       4    7    1        -0.7121206804E+00      0.1533463413E+01
          0                 4           2             4    7     1      -0.1916648827E-01       4    7    1        -0.1030442820E+01      0.2385683551E+01
          0                 5           2             4    7     1      -0.7182510097E-02       4    7    1        -0.3865150861E+00      0.8333304934E+00
          0                 6           2             4    7     1      -0.2688299714E-02       4    7    1        -0.1447912252E+00      0.3065035388E+00
          0                 7           2             4    7     1      -0.1005203163E-02       4    7    1        -0.5418286226E-01      0.1127797388E+00
          0                 8           2             4    7     1      -0.3755244287E-03       4    7    1        -0.2025639280E-01      0.4150538998E-01
          0                 9           2             4    7     1      -0.1401718565E-03       4    7    1        -0.7566161543E-02      0.1527744732E-01
          0                10           1             4    7     1      -0.5228160334E-04       4    7    1        -0.2823787550E-02      0.5624227185E-02

    ------------------------------------------------
       NWT REQUIRED           10 OUTER ITERATIONS 
       AND A TOTAL OF         19 INNER ITERATIONS.
    ------------------------------------------------

 NO OUTPUT CONTROL FOR STRESS PERIOD   21   TIME STEP   20
 
 SOLVING FOR HEAD 
                                                   Max.-Head-Change                         Max.-Flux-Residual
  Residual-Control   Outer-Iter.   Inner-Iter.     Column Row Layer    Maximum-Head-Change  Column Row Layer    Maximum-Flux-Residual          L2-NORM 
          0                 1           2             5    6     1       0.6582762346E-01       5    6    1         0.3541762603E+01      0.7362696021E+01
          0                 2           2             5    8     1      -0.6956464138E-01       5    8    1        -0.3859607618E+01      0.7303152622E+01
          0                 3           2             4    7     1      -0.1318706383E-01       4    7    1        -0.7103681500E+00      0.1621901068E+01
          0                 4           2             4    7     1      -0.1910243157E-01       4    7    1        -0.1026967081E+01      0.2382425677E+01
          0                 5           2             4    7     1      -0.7158733911E-02       4    7    1        -0.3852243122E+00      0.8310593634E+00
          0                 6           2             4    7     1      -0.2679509664E-02       4    7    1        -0.1443136688E+00      0.3057770037E+00
          0                 7           2             4    7     1      -0.1001950519E-02       4    7    1        -0.5400598716E-01      0.1125512376E+00
          0                 8           2             4    7     1      -0.3743223569E-03       4    7    1        -0.2019095558E-01      0.4143514850E-01
          0                 9           2             4    7     1      -0.1397282462E-03       4    7    1        -0.7541983629E-02      0.1525655034E-01
          0                10           1             4    7     1      -0.5211815192E-04       4    7    1        -0.2814867253E-02      0.5618308426E-02

    ------------------------------------------------
       NWT REQUIRED           10 OUTER ITERATIONS 
       AND A TOTAL OF         19 INNER ITERATIONS.
    ------------------------------------------------

 NO OUTPUT CONTROL FOR STRESS PERIOD   21   TIME STEP   21
 
 SOLVING FOR HEAD 
                                                   Max.-Head-Change                         Max.-Flux-Residual
  Residual-Control   Outer-Iter.   Inner-Iter.     Column Row Layer    Maximum-Head-Change  Column Row Layer    Maximum-Flux-Residual          L2-NORM 
          0                 1           2             5    6     1       0.6620246800E-01       5    6    1         0.3556168006E+01      0.7393337712E+01
          0                 2           2             5    8     1      -0.6987905852E-01       5    8    1        -0.3877448895E+01      0.7303595728E+01
          0                 3           2             4    7     1      -0.1316216013E-01       4    7    1        -0.7089079396E+00      0.1623260409E+01
          0                 4           2             4    7     1      -0.1904091913E-01       4    7    1        -0.1023618839E+01      0.2376240167E+01
          0                 5           2             4    7     1      -0.7136009658E-02       4    7    1        -0.3839869187E+00      0.8292444798E+00
          0                 6           2             4    7     1      -0.2671100496E-02       4    7    1        -0.1438556368E+00      0.3051039876E+00
          0                 7           2             4    7     1      -0.9988463157E-03       4    7    1        -0.5383685808E-01      0.1123020751E+00
          0                 8           2             4    7     1      -0.3731768440E-03       4    7    1        -0.2012852753E-01      0.4134296760E-01
          0                 9           2             4    7     1      -0.1393056584E-03       4    7    1        -0.7518948177E-02      0.1522245270E-01
          0                10           1             4    7     1      -0.5196229853E-04       4    7    1        -0.2806369894E-02      0.5605699393E-02

    ------------------------------------------------
       NWT REQUIRED           10 OUTER ITERATIONS 
       AND A TOTAL OF         19 INNER ITERATIONS.
    ------------------------------------------------

 NO OUTPUT CONTROL FOR STRESS PERIOD   21   TIME STEP   22
 
 SOLVING FOR HEAD 
                                                   Max.-Head-Change                         Max.-Flux-Residual
  Residual-Control   Outer-Iter.   Inner-Iter.     Column Row Layer    Maximum-Head-Change  Column Row Layer    Maximum-Flux-Residual          L2-NORM 
          0                 1           2             5    6     1       0.6643817753E-01       5    6    1         0.3568977570E+01      0.7428977755E+01
          0                 2           2             5    8     1      -0.7017213458E-01       5    8    1        -0.3894138898E+01      0.7302492100E+01
          0                 3           2             4    7     1      -0.1314184822E-01       4    7    1        -0.7076941032E+00      0.1624748283E+01
          0                 4           2             4    7     1      -0.1898120849E-01       4    7    1        -0.1020368225E+01      0.2370200561E+01
          0                 5           2             4    7     1      -0.7113931155E-02       4    7    1        -0.3827848480E+00      0.8272429205E+00
          0                 6           2             4    7     1      -0.2662944408E-02       4    7    1        -0.1434115359E+00      0.3043647872E+00
          0                 7           2             4    7     1      -0.9958337548E-03       4    7    1        -0.5367280881E-01      0.1120290687E+00
          0                 8           2             4    7     1      -0.3720642554E-03       4    7    1        -0.2006793640E-01      0.4124215552E-01
          0                 9           2             4    7     1      -0.1388948101E-03       4    7    1        -0.7496571834E-02      0.1518523270E-01
          0                10           1             4    7     1      -0.5181060157E-04       4    7    1        -0.2798107298E-02      0.5591959821E-02

    ------------------------------------------------
       NWT REQUIRED           10 OUTER ITERATIONS 
       AND A TOTAL OF         19 INNER ITERATIONS.
    ------------------------------------------------

 NO OUTPUT CONTROL FOR STRESS PERIOD   21   TIME STEP   23
 
 SOLVING FOR HEAD 
                                                   Max.-Head-Change                         Max.-Flux-Residual
  Residual-Control   Outer-Iter.   Inner-Iter.     Column Row Layer    Maximum-Head-Change  Column Row Layer    Maximum-Flux-Residual          L2-NORM 
          0                 1           2             5    6     1       0.6665942246E-01       5    6    1         0.3580943202E+01      0.7468723966E+01
          0                 2           2             5    8     1      -0.7044633225E-01       5    8    1        -0.3909777416E+01      0.7300686726E+01
          0                 3           2             4    7     1      -0.1312540356E-01       4    7    1        -0.7067050405E+00      0.1626479026E+01
          0                 4           2             4    7     1      -0.1892295075E-01       4    7    1        -0.1017201561E+01      0.2364139614E+01
          0                 5           2             4    7     1      -0.7092370378E-02       4    7    1        -0.3816126173E+00      0.8252317920E+00
          0                 6           2             4    7     1      -0.2654967046E-02       4    7    1        -0.1429777333E+00      0.3036227415E+00
          0                 7           2             4    7     1      -0.9928829119E-03       4    7    1        -0.5351231471E-01      0.1117551351E+00
          0                 8           2             4    7     1      -0.3709729869E-03       4    7    1        -0.2000857302E-01      0.4114105067E-01
          0                 9           2             4    7     1      -0.1384913298E-03       4    7    1        -0.7474619610E-02      0.1514792022E-01
          0                10           1             4    7     1      -0.5166145083E-04       4    7    1        -0.2789991235E-02      0.5578191301E-02

    ------------------------------------------------
       NWT REQUIRED           10 OUTER ITERATIONS 
       AND A TOTAL OF         19 INNER ITERATIONS.
    ------------------------------------------------

 NO OUTPUT CONTROL FOR STRESS PERIOD   21   TIME STEP   24
 
 SOLVING FOR HEAD 
                                                   Max.-Head-Change                         Max.-Flux-Residual
  Residual-Control   Outer-Iter.   Inner-Iter.     Column Row Layer    Maximum-Head-Change  Column Row Layer    Maximum-Flux-Residual          L2-NORM 
          0                 1           2             5    6     1       0.6686900389E-01       5    6    1         0.3592228945E+01      0.7511625827E+01
          0                 2           2             5    8     1      -0.7070308024E-01       5    8    1        -0.3924442086E+01      0.7298257115E+01
          0                 3           2             4    7     1      -0.1311238520E-01       4    7    1        -0.7059144888E+00      0.1628103264E+01
          0                 4           2             4    7     1      -0.1886598235E-01       4    7    1        -0.1014109181E+01      0.2358066465E+01
          0                 5           2             4    7     1      -0.7071219340E-02       4    7    1        -0.3804641287E+00      0.8232151958E+00
          0                 6           2             4    7     1      -0.2647165659E-02       4    7    1        -0.1425539793E+00      0.3028830246E+00
          0                 7           2             4    7     1      -0.9899935217E-03       4    7    1        -0.5335532747E-01      0.1114821903E+00
          0                 8           2             4    7     1      -0.3699031944E-03       4    7    1        -0.1995043436E-01      0.4104034269E-01
          0                 9           2             4    7     1      -0.1380953604E-03       4    7    1        -0.7453095445E-02      0.1511076550E-01
          0                10           1             4    7     1      -0.5151492928E-04       4    7    1        -0.2782024919E-02      0.5564484705E-02

    ------------------------------------------------
       NWT REQUIRED           10 OUTER ITERATIONS 
       AND A TOTAL OF         19 INNER ITERATIONS.
    ------------------------------------------------

 NO OUTPUT CONTROL FOR STRESS PERIOD   21   TIME STEP   25
 
 SOLVING FOR HEAD 
                                                   Max.-Head-Change                         Max.-Flux-Residual
  Residual-Control   Outer-Iter.   Inner-Iter.     Column Row Layer    Maximum-Head-Change  Column Row Layer    Maximum-Flux-Residual          L2-NORM 
          0                 1           2             5    6     1       0.6706864427E-01       5    6    1         0.3602936006E+01      0.7556895582E+01
          0                 2           2             5    8     1      -0.7094383801E-01       5    8    1        -0.3938211614E+01      0.7295566510E+01
          0                 3           2             4    7     1      -0.1310240394E-01       4    7    1        -0.7052998524E+00      0.1628371927E+01
          0                 4           2             4    7     1      -0.1881012428E-01       4    7    1        -0.1011081448E+01      0.2351493689E+01
          0                 5           2             4    7     1      -0.7050469550E-02       4    7    1        -0.3793391119E+00      0.8210091780E+00
          0                 6           2             4    7     1      -0.2639427827E-02       4    7    1        -0.1421343678E+00      0.3020664800E+00
          0                 7           2             4    7     1      -0.9871219636E-03       4    7    1        -0.5319957075E-01      0.1111813705E+00
          0                 8           2             4    7     1      -0.3688378541E-03       4    7    1        -0.1989263618E-01      0.4092952682E-01
          0                 9           2             4    7     1      -0.1377002336E-03       4    7    1        -0.7431653961E-02      0.1506994183E-01
          0                10           1             4    7     1      -0.5136841989E-04       4    7    1        -0.2774072973E-02      0.5549445404E-02

    ------------------------------------------------
       NWT REQUIRED           10 OUTER ITERATIONS 
       AND A TOTAL OF         19 INNER ITERATIONS.
    ------------------------------------------------

 NO OUTPUT CONTROL FOR STRESS PERIOD   21   TIME STEP   26
 
 SOLVING FOR HEAD 
                                                   Max.-Head-Change                         Max.-Flux-Residual
  Residual-Control   Outer-Iter.   Inner-Iter.     Column Row Layer    Maximum-Head-Change  Column Row Layer    Maximum-Flux-Residual          L2-NORM 
          0                 1           2             5    6     1       0.6726031475E-01       5    6    1         0.3613179463E+01      0.7603888975E+01
          0                 2           2             5    8     1      -0.7116986910E-01       5    8    1        -0.3951157152E+01      0.7292681570E+01
          0                 3           2             4    7     1      -0.1309498480E-01       4    7    1        -0.7048329880E+00      0.1629455375E+01
          0                 4           2             4    7     1      -0.1875530293E-01       4    7    1        -0.1008112542E+01      0.2345260781E+01
          0                 5           2             4    7     1      -0.7030096077E-02       4    7    1        -0.3782352589E+00      0.8189351134E+00
          0                 6           2             4    7     1      -0.2631860296E-02       4    7    1        -0.1417241859E+00      0.3013022651E+00
          0                 7           2             4    7     1      -0.9843124373E-03       4    7    1        -0.5304722845E-01      0.1108996855E+00
          0                 8           2             4    7     1      -0.3677952576E-03       4    7    1        -0.1983608308E-01      0.4082570031E-01
          0                 9           2             4    7     1      -0.1373134959E-03       4    7    1        -0.7410669450E-02      0.1503167227E-01
          0                10           1             4    7     1      -0.5122502046E-04       4    7    1        -0.2766289717E-02      0.5535339634E-02

    ------------------------------------------------
       NWT REQUIRED           10 OUTER ITERATIONS 
       AND A TOTAL OF         19 INNER ITERATIONS.
    ------------------------------------------------

 NO OUTPUT CONTROL FOR STRESS PERIOD   21   TIME STEP   27
 
 SOLVING FOR HEAD 
                                                   Max.-Head-Change                         Max.-Flux-Residual
  Residual-Control   Outer-Iter.   Inner-Iter.     Column Row Layer    Maximum-Head-Change  Column Row Layer    Maximum-Flux-Residual          L2-NORM 
          0                 1           2             5    6     1       0.6744532287E-01       5    6    1         0.3623037268E+01      0.7652079453E+01
          0                 2           2             5    8     1      -0.7138234492E-01       5    8    1        -0.3963340533E+01      0.7289371325E+01
          0                 3           2             4    7     1      -0.1308990260E-01       4    7    1        -0.7045004557E+00      0.1630494530E+01
          0                 4           2             4    7     1      -0.1870138358E-01       4    7    1        -0.1005195155E+01      0.2339027269E+01
          0                 5           2             4    7     1      -0.7010019737E-02       4    7    1        -0.3771484275E+00      0.8168561062E+00
          0                 6           2             4    7     1      -0.2624422748E-02       4    7    1        -0.1413213520E+00      0.3005398552E+00
          0                 7           2             4    7     1      -0.9815488674E-03       4    7    1        -0.5289748167E-01      0.1106187355E+00
          0                 8           2             4    7     1      -0.3667689273E-03       4    7    1        -0.1978044777E-01      0.4072217277E-01
          0                 9           2             4    7     1      -0.1369325219E-03       4    7    1        -0.7390009843E-02      0.1499352169E-01
          0                10           1             4    7     1      -0.5108366604E-04       4    7    1        -0.2758621617E-02      0.5521280663E-02

    ------------------------------------------------
       NWT REQUIRED           10 OUTER ITERATIONS 
       AND A TOTAL OF         19 INNER ITERATIONS.
    ------------------------------------------------

 NO OUTPUT CONTROL FOR STRESS PERIOD   21   TIME STEP   28
 
 SOLVING FOR HEAD 
                                                   Max.-Head-Change                         Max.-Flux-Residual
  Residual-Control   Outer-Iter.   Inner-Iter.     Column Row Layer    Maximum-Head-Change  Column Row Layer    Maximum-Flux-Residual          L2-NORM 
          0                 1           2             5    6     1       0.6762443123E-01       5    6    1         0.3632554991E+01      0.7701041690E+01
          0                 2           2             5    8     1      -0.7158222753E-01       5    8    1        -0.3974820472E+01      0.7285703418E+01
          0                 3           2             4    7     1      -0.1308690068E-01       4    7    1        -0.7042907293E+00      0.1631501499E+01
          0                 4           2             4    7     1      -0.1864831436E-01       4    7    1        -0.1002326817E+01      0.2332808056E+01
          0                 5           2             4    7     1      -0.6990241883E-02       4    7    1        -0.3760799325E+00      0.8147854633E+00
          0                 6           2             4    7     1      -0.2617063462E-02       4    7    1        -0.1409234489E+00      0.2997772663E+00
          0                 7           2             4    7     1      -0.9788122037E-03       4    7    1        -0.5274945363E-01      0.1103377972E+00
          0                 8           2             4    7     1      -0.3657518448E-03       4    7    1        -0.1972540715E-01      0.4061866806E-01
          0                 9           2             4    7     1      -0.1365547252E-03       4    7    1        -0.7369556496E-02      0.1495538644E-01
          0                10           1             4    7     1      -0.5094340236E-04       4    7    1        -0.2751025027E-02      0.5507229578E-02

    ------------------------------------------------
       NWT REQUIRED           10 OUTER ITERATIONS 
       AND A TOTAL OF         19 INNER ITERATIONS.
    ------------------------------------------------

 NO OUTPUT CONTROL FOR STRESS PERIOD   21   TIME STEP   29
 
 SOLVING FOR HEAD 
                                                   Max.-Head-Change                         Max.-Flux-Residual
  Residual-Control   Outer-Iter.   Inner-Iter.     Column Row Layer    Maximum-Head-Change  Column Row Layer    Maximum-Flux-Residual          L2-NORM 
          0                 1           2             5    6     1       0.6779845819E-01       5    6    1         0.3641784757E+01      0.7649560424E+01
          0                 2           2             5    8     1      -0.7188155539E-01       5    8    1        -0.3985645171E+01      0.7484844766E+01
          0                 3           2             4    7     1      -0.1308195870E-01       4    7    1        -0.7077989247E+00      0.1538411128E+01
          0                 4           2             4    7     1      -0.1855044489E-01       4    7    1        -0.9991559649E+00      0.2265064307E+01
          0                 5           2             4    7     1      -0.6908194253E-02       4    7    1        -0.3739597986E+00      0.7512529907E+00
          0                 6           2             4    7     1      -0.2561953891E-02       4    7    1        -0.1391073360E+00      0.2707640269E+00
          0                 7           2             4    7     1      -0.9477801200E-03       4    7    1        -0.5155802762E-01      0.9872739843E-01
          0                 8           2             4    7     1      -0.3500847653E-03       4    7    1        -0.1906634790E-01      0.3615577596E-01
          0                 9           2             4    7     1      -0.1291841433E-03       4    7    1        -0.7040856555E-02      0.1326252804E-01
          0                10           1             4    7     1      -0.4763892458E-04       4    7    1        -0.2597697592E-02      0.4867867551E-02

    ------------------------------------------------
       NWT REQUIRED           10 OUTER ITERATIONS 
       AND A TOTAL OF         19 INNER ITERATIONS.
    ------------------------------------------------

 NO OUTPUT CONTROL FOR STRESS PERIOD   21   TIME STEP   30



 STREAM LISTING     PERIOD     21   STEP       30

 LAYER ROW COL. STREAM  RCH.  FLOW INTO     FLOW TO   FLOW OUT OF   OVRLND.     DIRECT     STREAM       STREAM     STREAM     STREAM   STREAMBED  STREAMBED
                SEG.NO.  NO.  STRM. RCH.    AQUIFER    STRM. RCH.    RUNOFF     PRECIP       ET          HEAD       DEPTH      WIDTH   CONDCTNC.   GRADIENT

   1    1    1     1     1    2.7750E+01  2.5751E-01   2.7493E+01  0.000E+00  0.000E+00  0.000E+00  1.09427E+03  1.218E+00  1.357E+01  6.105E-02  1.406E+00
   1    2    2     1     2    2.7493E+01  3.9833E-01   2.7095E+01  0.000E+00  0.000E+00  0.000E+00  1.08927E+03  1.213E+00  1.351E+01  9.454E-02  1.404E+00
   1    3    3     1     3    2.7095E+01  3.3924E-01   2.6755E+01  0.000E+00  0.000E+00  0.000E+00  1.08363E+03  1.208E+00  1.344E+01  8.062E-02  1.403E+00
   1    3    4     1     4    2.6755E+01  3.1201E-01   2.6443E+01  0.000E+00  0.000E+00  0.000E+00  1.07861E+03  1.203E+00  1.337E+01  7.423E-02  1.401E+00
   1    4    5     2     1    2.4443E+01  3.2655E-01   2.4117E+01  0.000E+00  0.000E+00  0.000E+00  1.07312E+03  1.187E+00  1.200E+01  7.800E-02  1.396E+00
   1    5    6     2     2    2.4117E+01  2.5069E-01   2.3866E+01  0.000E+00  0.000E+00  0.000E+00  1.06769E+03  1.178E+00  1.200E+01  6.000E-02  1.393E+00
   1    6    6     2     3    2.3866E+01  2.5024E-01   2.3616E+01  0.000E+00  0.000E+00  0.000E+00  1.06296E+03  1.171E+00  1.200E+01  6.000E-02  1.390E+00
   1    7    6     2     4    2.3616E+01  2.4980E-01   2.3366E+01  0.000E+00  0.000E+00  0.000E+00  1.05824E+03  1.163E+00  1.200E+01  6.000E-02  1.388E+00
   1    8    6     2     5    2.3366E+01  2.4935E-01   2.3117E+01  0.000E+00  0.000E+00  0.000E+00  1.05351E+03  1.156E+00  1.200E+01  6.000E-02  1.385E+00
   1    3    5     3     1    2.0000E+00  2.8252E-01   1.7175E+00  0.000E+00  0.000E+00  0.000E+00  1.07555E+03  1.909E+00  9.636E+00  7.227E-02  1.955E+00
   1    3    6     3     2    1.7175E+00  2.4905E-01   1.4684E+00  0.000E+00  0.000E+00  0.000E+00  1.07264E+03  1.727E+00  8.909E+00  6.682E-02  1.864E+00
   1    3    7     3     3    1.4684E+00  1.9718E-01   1.2712E+00  0.000E+00  0.000E+00  0.000E+00  1.06987E+03  1.555E+00  8.218E+00  5.547E-02  1.777E+00
   1    4    8     3     4    1.2712E+00  2.2567E-01   1.0456E+00  0.000E+00  0.000E+00  0.000E+00  1.06682E+03  1.364E+00  7.455E+00  6.709E-02  1.682E+00
   1    5    8     3     5    1.0456E+00  1.5790E-01   8.8768E-01  0.000E+00  0.000E+00  0.000E+00  1.06362E+03  1.164E+00  6.655E+00  4.991E-02  1.582E+00
   1    6    8     3     6    8.8768E-01  5.5980E-02   8.3170E-01  0.000E+00  0.000E+00  0.000E+00  1.06158E+03  1.036E+00  6.145E+00  1.844E-02  1.518E+00
   1    5   10     4     1    1.0000E+01  9.0919E-02   9.9091E+00  0.000E+00  0.000E+00  0.000E+00  1.07836E+03  6.368E-01  1.000E+01  2.500E-02  1.212E+00
   1    5    9     4     2    9.9091E+00  1.8158E-01   9.7275E+00  0.000E+00  0.000E+00  0.000E+00  1.07154E+03  6.315E-01  1.000E+01  5.000E-02  1.211E+00
   1    6    8     4     3    9.7275E+00  1.2689E-01   9.6006E+00  0.000E+00  0.000E+00  0.000E+00  1.06381E+03  6.256E-01  1.000E+01  3.500E-02  1.209E+00
   1    6    8     5     1    1.0432E+01  2.2686E-01   1.0205E+01  0.000E+00  0.000E+00  0.000E+00  1.05868E+03  6.790E-01  1.542E+01  6.166E-02  1.226E+00
   1    7    7     5     2    1.0205E+01  2.7894E-01   9.9265E+00  0.000E+00  0.000E+00  0.000E+00  1.05417E+03  6.732E-01  1.519E+01  7.594E-02  1.224E+00
   1    8    7     5     3    9.9265E+00  1.9221E-01   9.7343E+00  0.000E+00  0.000E+00  0.000E+00  1.04992E+03  6.676E-01  1.497E+01  5.241E-02  1.223E+00
   1    8    6     5     4    9.7343E+00  1.3577E-01   9.5985E+00  0.000E+00  0.000E+00  0.000E+00  1.04691E+03  6.637E-01  1.482E+01  3.706E-02  1.221E+00
   1    9    6     6     1    9.5985E+00  2.2097E-01   9.3776E+00  0.000E+00  0.000E+00  0.000E+00  1.04341E+03  6.828E-01  1.200E+01  6.000E-02  1.228E+00
   1   10    7     6     2    9.3776E+00  2.2039E-01   9.1572E+00  0.000E+00  0.000E+00  0.000E+00  1.03885E+03  6.732E-01  1.200E+01  6.000E-02  1.224E+00
   1   11    7     6     3    9.1572E+00  2.1981E-01   8.9374E+00  0.000E+00  0.000E+00  0.000E+00  1.03430E+03  6.636E-01  1.200E+01  6.000E-02  1.221E+00
   1   12    7     6     4    8.9374E+00  2.1923E-01   8.7181E+00  0.000E+00  0.000E+00  0.000E+00  1.02974E+03  6.539E-01  1.200E+01  6.000E-02  1.218E+00
   1   13    7     6     5    8.7181E+00 -9.7675E-02   8.8158E+00  0.000E+00  0.000E+00  0.000E+00  1.02656E+03  6.511E-01  1.200E+01  2.400E-01 -1.357E-01
   1   14    9     7     1    1.5000E+02  1.3436E+00   1.4866E+02  0.000E+00  0.000E+00  0.000E+00  1.03987E+03  2.288E+00  5.529E+01  5.593E-01  8.007E-01
   1   13    8     7     2    1.4866E+02  1.8608E+00   1.4680E+02  0.000E+00  0.000E+00  0.000E+00  1.03478E+03  2.279E+00  5.526E+01  6.148E-01  1.009E+00
   1   13    7     7     3    1.4680E+02  1.5202E+00   1.4528E+02  0.000E+00  0.000E+00  0.000E+00  1.02969E+03  2.270E+00  5.522E+01  5.584E-01  9.074E-01
   1   13    6     8     1    1.5409E+02  8.7603E-01   1.5322E+02  0.000E+00  0.000E+00  0.000E+00  1.02472E+03  2.842E+00  4.121E+01  4.200E-01  6.953E-01
   1   13    5     8     2    1.5322E+02  1.4764E-01   1.5307E+02  0.000E+00  0.000E+00  0.000E+00  1.01846E+03  2.839E+00  4.116E+01  4.195E-01  1.173E-01
   1   13    4     8     3    1.5307E+02 -2.5066E+00   1.5557E+02  0.000E+00  0.000E+00  0.000E+00  1.01222E+03  2.847E+00  4.128E+01  4.207E+00 -1.986E-01
   1   13    3     8     4    1.5557E+02 -3.6723E+00   1.5925E+02  0.000E+00  0.000E+00  0.000E+00  1.00599E+03  2.868E+00  4.159E+01  4.238E+00 -2.888E-01
   1   13    2     8     5    1.5925E+02 -2.5899E+00   1.6184E+02  0.000E+00  0.000E+00  0.000E+00  9.99765E+02  2.890E+00  4.190E+01  4.270E+00 -2.022E-01
   1   13    1     8     6    1.6184E+02 -1.9896E+00   1.6383E+02  0.000E+00  0.000E+00  0.000E+00  9.94780E+02  2.905E+00  4.212E+01  2.575E+00 -2.575E-01
   1    8    6     9     1    2.3117E+01  0.0000E+00   2.3117E+01  0.000E+00  0.000E+00  0.000E+00  1.08250E+03  3.747E+00  4.000E+00  0.000E+00  2.249E+00
   1    8    5     9     2    2.3117E+01  0.0000E+00   2.3117E+01  0.000E+00  0.000E+00  0.000E+00  1.08200E+03  3.747E+00  4.000E+00  0.000E+00  2.249E+00





UNSATURATED ZONE PACKAGE VOLUMETRIC BUDGET FOR  TIME STEP    30 STRESS PERIOD   21
  ------------------------------------------------------------------------------



     CUMULATIVE VOLUMES      L**3       RATES FOR THIS TIME STEP      L**3/T
     ------------------                 ------------------------

           IN:                                      IN:
           ---                                      ---
        INFILTRATION =  2787380820.9023          INFILTRATION =          49.5664

          OUT:                                     OUT:
          ----                                     ----
              UZF ET =   826645113.6833                UZF ET =          49.5675
        UZF RECHARGE =  1585289547.7891          UZF RECHARGE =          15.4255

            IN - OUT =   375446159.4300              IN - OUT =         -15.4266

          STORAGE:                                 STORAGE:
          --------                                 --------
      STORAGE CHANGE =   375442783.7560        STORAGE CHANGE =         -15.4266

 PERCENT DISCREPANCY IS DIFFERENCE BETWEEN IN-OUT MINUS CHANGE IN STORAGE
 DIVIDED BY THE AVERAGE OF IN AND OUT TIMES 100

 PERCENT DISCREPANCY =           0.00     PERCENT DISCREPANCY =          -0.00






1
  VOLUMETRIC BUDGET FOR AGRICULTURAL FIELDS AT  END OF TIME STEP   30, STRESS PERIOD  21
  ------------------------------------------------------------------------------

     CUMULATIVE VOLUMES      L**3       RATES FOR THIS TIME STEP      L**3/T
     ------------------                 ------------------------

           IN:                                      IN:
           ---                                      ---
           AG WELLS      =  1742454144.0000             AG WELLS      =          25.6018
      DIVERSION SEGMENTS =  1000255360.0000        DIVERSION SEGMENTS =          23.1167
           GW IRRIGATION =           0.0000             GW IRRIGATION =           0.0000
           SW IRRIGATION =           0.0000             SW IRRIGATION =           0.0000
        SYSTEM LOSSES GW =           0.0000          SYSTEM LOSSES GW =           0.0000
        SYSTEM LOSSES SW =           0.0000          SYSTEM LOSSES SW =           0.0000

                TOTAL IN =  2742709504.0000                  TOTAL IN =          48.7185

          OUT:                                     OUT:
          ----                                     ----
           AG WELLS      =           0.0000             AG WELLS      =           0.0000
      DIVERSION SEGMENTS =           0.0000        DIVERSION SEGMENTS =           0.0000
           GW IRRIGATION =  1742454144.0000             GW IRRIGATION =          25.6018
           SW IRRIGATION =  1000275520.0000             SW IRRIGATION =          23.1172
        SYSTEM LOSSES GW =           0.0000          SYSTEM LOSSES GW =           0.0000
        SYSTEM LOSSES SW =           0.0000          SYSTEM LOSSES SW =           0.0000

               TOTAL OUT =  2742729728.0000                 TOTAL OUT =          48.7189

                IN - OUT =      -20224.0000                  IN - OUT =      -4.6158E-04

     PERCENT DISCREPANCY =          -0.00         PERCENT DISCREPANCY =          -0.00



1
  VOLUMETRIC BUDGET FOR ENTIRE MODEL AT END OF TIME STEP   30, STRESS PERIOD  21
  ------------------------------------------------------------------------------

     CUMULATIVE VOLUMES      L**3       RATES FOR THIS TIME STEP      L**3/T
     ------------------                 ------------------------

           IN:                                      IN:
           ---                                      ---
             STORAGE     =  1749214592.0000               STORAGE     =          14.2720
       CONSTANT HEAD     =           0.0000         CONSTANT HEAD     =           0.0000
     HEAD DEP BOUNDS     =    15063367.0000       HEAD DEP BOUNDS     =           0.2863
      STREAM LEAKAGE     =   632826496.0000        STREAM LEAKAGE     =          11.6638
        UZF RECHARGE     =  1585289344.0000          UZF RECHARGE     =          15.4255
               GW ET     =           0.0000                 GW ET     =           0.0000
     SURFACE LEAKAGE     =           0.0000       SURFACE LEAKAGE     =           0.0000
           AG WELLS      =           0.0000             AG WELLS      =           0.0000

                TOTAL IN =  3982393856.0000                  TOTAL IN =          41.6476

          OUT:                                     OUT:
          ----                                     ----
             STORAGE     =  1655754240.0000               STORAGE     =           4.9064
       CONSTANT HEAD     =           0.0000         CONSTANT HEAD     =           0.0000
     HEAD DEP BOUNDS     =    15258702.0000       HEAD DEP BOUNDS     =           0.2870
      STREAM LEAKAGE     =   568846592.0000        STREAM LEAKAGE     =          10.8561
        UZF RECHARGE     =           0.0000          UZF RECHARGE     =           0.0000
               GW ET     =      106432.0312                 GW ET     =           0.0000
     SURFACE LEAKAGE     =           0.0000       SURFACE LEAKAGE     =           0.0000
           AG WELLS      =  1742454144.0000             AG WELLS      =          25.6018

               TOTAL OUT =  3982420480.0000                 TOTAL OUT =          41.6512

                IN - OUT =      -26624.0000                  IN - OUT =      -3.6163E-03

     PERCENT DISCREPANCY =          -0.00         PERCENT DISCREPANCY =          -0.01






         TIME SUMMARY AT END OF TIME STEP   30 IN STRESS PERIOD   21
                    SECONDS     MINUTES      HOURS       DAYS        YEARS
                    -----------------------------------------------------------
   TIME STEP LENGTH  87667.      1461.1      24.352      1.0147     2.77799E-03
 STRESS PERIOD TIME 2.63000E+06  43833.      730.56      30.440     8.33397E-02
         TOTAL TIME 5.26866E+07 8.78110E+05  14635.      609.80      1.6695    
1
1
                            STRESS PERIOD NO.   22, LENGTH =   2630000.    
                            -----------------------------------------------

                              NUMBER OF TIME STEPS =    30

                               MULTIPLIER FOR DELT =     1.000

                            INITIAL TIME STEP SIZE =   87666.66    

 REUSING NON-PARAMETER GHB CELLS FROM LAST STRESS PERIOD

      2 GHB CELLS

 REUSING STREAM SEGMENT DATA FROM LAST STRESS PERIOD



            AREAL INFILTRATION RATE
 READING ON UNIT   19 WITH FORMAT: (FREE)              

            1           2           3           4           5           6           7           8           9          10
 ........................................................................................................................
   1   1.0000E-10  2.0000E-10   0.000       0.000       0.000       0.000       0.000       0.000       0.000       0.000    
   2   2.0000E-10  1.0000E-10  2.0000E-10   0.000       0.000      8.0000E-10  8.0000E-10  5.0000E-10   0.000       0.000    
   3    0.000      5.0000E-10  1.0000E-10  1.0000E-10  8.0000E-10  8.0000E-10  5.0000E-10  5.0000E-10   0.000       0.000    
   4   8.0000E-10  5.0000E-10  1.0000E-10  1.0000E-10  1.0000E-10  1.0000E-10  1.0000E-10  1.0000E-10  2.0000E-10   0.000    
   5   8.0000E-10  5.0000E-10  1.0000E-10  1.0000E-10  1.0000E-10  1.0000E-10  1.0000E-10  1.0000E-10  1.0000E-10  1.0000E-10
   6   8.0000E-10  5.0000E-10  5.0000E-10  2.0000E-10  2.0000E-10  1.0000E-10  1.0000E-10  1.0000E-10  1.0000E-10  5.0000E-10
   7   8.0000E-10  5.0000E-10  5.0000E-10  2.0000E-10  2.0000E-10  1.0000E-10  1.0000E-10  2.0000E-10  2.0000E-10   0.000    
   8    0.000      5.0000E-10  5.0000E-10  2.0000E-10  2.0000E-10  1.0000E-10  1.0000E-10  2.0000E-10  5.0000E-10   0.000    
   9    0.000      5.0000E-10  5.0000E-10  2.0000E-10  2.0000E-10  1.0000E-10  1.0000E-10  2.0000E-10  5.0000E-10   0.000    
  10    0.000      5.0000E-10  5.0000E-10  2.0000E-10  2.0000E-10  1.0000E-10  1.0000E-10  2.0000E-10  5.0000E-10  8.0000E-10
  11    0.000      1.0000E-10  1.0000E-10  1.0000E-10  1.0000E-10  1.0000E-10  1.0000E-10  2.0000E-10  5.0000E-10   0.000    
  12   1.0000E-10  1.0000E-10  1.0000E-10  1.0000E-10  1.0000E-10  1.0000E-10  1.0000E-10  1.0000E-10  2.0000E-10   0.000    
  13   1.0000E-10  1.0000E-10  2.0000E-10  2.0000E-10  2.0000E-10  2.0000E-10  2.0000E-10  1.0000E-10  1.0000E-10   0.000    
  14    0.000      2.0000E-10  5.0000E-10  5.0000E-10  5.0000E-10  5.0000E-10  5.0000E-10  2.0000E-10  1.0000E-10   0.000    
  15    0.000       0.000      8.0000E-10  8.0000E-10  8.0000E-10  8.0000E-10   0.000       0.000       0.000       0.000    

                  ET RATE =  7.500000E-08

 USING ET EXTINCTION DEPTH FROM PREVIOUS STRESS PERIOD. CURRENT PERIOD IS:      22

 USING EXTINCTION WATER CONTENT FROM PREVIOUS STRESS PERIOD. CURRENT PERIOD IS:      22

 USING AIR ENTRY PRESSURE FROM PREVIOUS STRESS PERIOD. CURRENT PERIOD IS:      22

 USING ROOT PRESSURE HEAD FROM PREVIOUS STRESS PERIOD. CURRENT PERIOD IS:      22

 USING ROOT ACTIVITY FROM PREVIOUS STRESS PERIOD. CURRENT PERIOD IS:      22

 PROCESSING AG STRESS PERIOD DATA

 READING AG STRESS PERIOD DATA

 READING IRRIGATION SEGMENT

 READING IRRIGATION WELL

 READING SUPPLEMENTAL WELL

 END PROCESSING AG STRESS PERIOD DATA OPTIONS
 
 SOLVING FOR HEAD 
                                                   Max.-Head-Change                         Max.-Flux-Residual
  Residual-Control   Outer-Iter.   Inner-Iter.     Column Row Layer    Maximum-Head-Change  Column Row Layer    Maximum-Flux-Residual          L2-NORM 
          0                 1           2             5    6     1       0.6796373021E-01       5    6    1         0.3650766399E+01      0.7065298564E+01
          0                 2           2             5    6     1       0.2353390787E-01       5    6    1         0.1261117228E+01      0.2370751820E+01
          0                 3           2             5    6     1       0.8151572599E-02       5    6    1         0.4369591016E+00      0.8244881707E+00
          0                 4           2             4    6     1       0.2840392326E-02       5    6    1         0.1513454004E+00      0.2878382988E+00
          0                 5           2             4    6     1       0.9967783583E-03       4    6    1         0.5289232445E-01      0.1005232357E+00
          0                 6           2             4    6     1       0.3497416754E-03       4    6    1         0.1856072889E-01      0.3511103781E-01
          0                 7           2             4    6     1       0.1226956097E-03       4    6    1         0.6512210685E-02      0.1226504813E-01
          0                 8           1             4    6     1       0.4303753364E-04       4    6    1         0.2284522059E-02      0.4284833545E-02

    ------------------------------------------------
       NWT REQUIRED            8 OUTER ITERATIONS 
       AND A TOTAL OF         15 INNER ITERATIONS.
    ------------------------------------------------

 NO OUTPUT CONTROL FOR STRESS PERIOD   22   TIME STEP    1
 
 SOLVING FOR HEAD 
                                                   Max.-Head-Change                         Max.-Flux-Residual
  Residual-Control   Outer-Iter.   Inner-Iter.     Column Row Layer    Maximum-Head-Change  Column Row Layer    Maximum-Flux-Residual          L2-NORM 
          0                 1           2             5    6     1       0.6391075744E-01       5    6    1         0.3456369892E+01      0.6182728412E+01
          0                 2           2             4    6     1       0.2221301137E-01       5    6    1         0.1181607725E+01      0.2009233432E+01
          0                 3           2             4    8     1      -0.2149712706E-01       4    8    1        -0.1141390286E+01      0.2337843989E+01
          0                 4           2             5    8     1       0.2079621350E-01       5    8    1         0.1183076200E+01      0.2299797994E+01
          0                 5           2             4    6     1       0.6176189491E-02       4    6    1         0.3459869464E+00      0.6482788204E+00
          0                 6           2             4    6     1       0.1594641702E-02       4    6    1         0.8939939867E-01      0.1616183946E+00
          0                 7           2             4    6     1       0.1317013304E-02       4    6    1         0.7380075110E-01      0.1432969006E+00
          0                 8           2             4    6     1       0.5340390599E-03       4    6    1         0.2993290084E-01      0.5375247833E-01
          0                 9           2             5    7     1      -0.2279471047E-02       5    8    1        -0.1340827863E+00      0.3144078734E+00
          0                10           2             5    8     1       0.2022156839E-02       5    8    1         0.1284896251E+00      0.2384417070E+00
                                                   Max.-Head-Change                         Max.-Flux-Residual
  Residual-Control   Outer-Iter.   Inner-Iter.     Column Row Layer    Maximum-Head-Change  Column Row Layer    Maximum-Flux-Residual          L2-NORM 
          0                11           2             4    7     1      -0.2705341775E-01       5    8    1        -0.1648480174E+01      0.3994879187E+01
          0                12           2             5    8     1       0.1203441384E-01       5    8    1         0.8088194835E+00      0.1244102454E+01
          0                13           2             5    7     1       0.2379382346E-02       5    7    1         0.1497845400E+00      0.2768323764E+00
          0                14           2             4    7     1       0.8485799820E-03       5    6    1         0.5313525321E-01      0.1044655678E+00
          0                15           2             4    7     1       0.3801342936E-03       4    7    1         0.2385094330E-01      0.4405092644E-01
          0                16           2             4    7     1       0.1699664389E-03       4    7    1         0.1069241193E-01      0.1909188802E-01
          0                17           1             4    6     1       0.7601328738E-04       4    7    1         0.4782660435E-02      0.8381490975E-02

    ------------------------------------------------
       NWT REQUIRED           17 OUTER ITERATIONS 
       AND A TOTAL OF         33 INNER ITERATIONS.
    ------------------------------------------------

 NO OUTPUT CONTROL FOR STRESS PERIOD   22   TIME STEP    2
 
 SOLVING FOR HEAD 
                                                   Max.-Head-Change                         Max.-Flux-Residual
  Residual-Control   Outer-Iter.   Inner-Iter.     Column Row Layer    Maximum-Head-Change  Column Row Layer    Maximum-Flux-Residual          L2-NORM 
          0                 1           2             4    6     1       0.6145040481E-01       4    6    1         0.3263881773E+01      0.5797806123E+01
          0                 2           2             4    6     1       0.2153415672E-01       4    6    1         0.1143956134E+01      0.1892989443E+01
          0                 3           2             4    6     1       0.7540814566E-02       4    6    1         0.4008478283E+00      0.6504759221E+00
          0                 4           2             4    6     1       0.2638944960E-02       4    6    1         0.1403433788E+00      0.2248738822E+00
          0                 5           2             4    6     1       0.9229771150E-03       4    6    1         0.4910733141E-01      0.7781481026E-01
          0                 6           2             4    6     1       0.3226429878E-03       4    6    1         0.1717322155E-01      0.2693882700E-01
          0                 7           2             4    6     1       0.1127309236E-03       4    6    1         0.6002514903E-02      0.9328916638E-02
          0                 8           1             4    6     1       0.3937040202E-04       4    6    1         0.2097046846E-02      0.3231391681E-02

    ------------------------------------------------
       NWT REQUIRED            8 OUTER ITERATIONS 
       AND A TOTAL OF         15 INNER ITERATIONS.
    ------------------------------------------------

 NO OUTPUT CONTROL FOR STRESS PERIOD   22   TIME STEP    3
 
 SOLVING FOR HEAD 
                                                   Max.-Head-Change                         Max.-Flux-Residual
  Residual-Control   Outer-Iter.   Inner-Iter.     Column Row Layer    Maximum-Head-Change  Column Row Layer    Maximum-Flux-Residual          L2-NORM 
          0                 1           2             4    6     1       0.5915536074E-01       4    6    1         0.3142908457E+01      0.5457683593E+01
          0                 2           2             5    8     1      -0.3619377892E-01       5    8    1        -0.1996854159E+01      0.3655515421E+01
          0                 3           2             5    8     1       0.3541785304E-01       5    8    1         0.2008863464E+01      0.4224158634E+01
          0                 4           2             4    6     1       0.1091345619E-01       4    6    1         0.6117589299E+00      0.1054877309E+01
          0                 5           2             4    6     1       0.4209939314E-02       4    6    1         0.2361034510E+00      0.3997110099E+00
          0                 6           2             4    6     1       0.1623139355E-02       4    6    1         0.9107153201E-01      0.1521974600E+00
          0                 7           2             4    6     1       0.6254789865E-03       4    6    1         0.3510994521E-01      0.5799736270E-01
          0                 8           2             4    6     1       0.2409116728E-03       4    6    1         0.1352868488E-01      0.2210970124E-01
          0                 9           1             4    6     1       0.9274758364E-04       4    6    1         0.5210390488E-02      0.8430689320E-02

    ------------------------------------------------
       NWT REQUIRED            9 OUTER ITERATIONS 
       AND A TOTAL OF         17 INNER ITERATIONS.
    ------------------------------------------------

 NO OUTPUT CONTROL FOR STRESS PERIOD   22   TIME STEP    4
 
 SOLVING FOR HEAD 
                                                   Max.-Head-Change                         Max.-Flux-Residual
  Residual-Control   Outer-Iter.   Inner-Iter.     Column Row Layer    Maximum-Head-Change  Column Row Layer    Maximum-Flux-Residual          L2-NORM 
          0                 1           2             4    6     1       0.5691011308E-01       4    6    1         0.3024170910E+01      0.5164338287E+01
          0                 2           2             4    6     1       0.1990953849E-01       4    6    1         0.1059289544E+01      0.1696007877E+01
          0                 3           2             4    8     1      -0.3418341301E-01       5    8    1        -0.1861659456E+01      0.4198962831E+01
          0                 4           2             5    8     1       0.3523035717E-01       5    8    1         0.2000359069E+01      0.3887862740E+01
          0                 5           2             4    6     1       0.9071447865E-02       4    7    1         0.5089560143E+00      0.9027022249E+00
          0                 6           2             4    6     1       0.3501595937E-02       4    6    1         0.1962645055E+00      0.3392994086E+00
          0                 7           2             4    6     1       0.1350911139E-02       4    6    1         0.7575293318E-01      0.1288534111E+00
          0                 8           2             4    6     1       0.5209088782E-03       4    6    1         0.2922322295E-01      0.4905149616E-01
          0                 9           2             4    6     1       0.2007602989E-03       4    6    1         0.1126759659E-01      0.1869205549E-01
          0                10           1             4    6     1       0.7733641985E-04       4    6    1         0.4342264059E-02      0.7126416316E-02

    ------------------------------------------------
       NWT REQUIRED           10 OUTER ITERATIONS 
       AND A TOTAL OF         19 INNER ITERATIONS.
    ------------------------------------------------

 NO OUTPUT CONTROL FOR STRESS PERIOD   22   TIME STEP    5
 
 SOLVING FOR HEAD 
                                                   Max.-Head-Change                         Max.-Flux-Residual
  Residual-Control   Outer-Iter.   Inner-Iter.     Column Row Layer    Maximum-Head-Change  Column Row Layer    Maximum-Flux-Residual          L2-NORM 
          0                 1           2             4    6     1       0.5356357112E-01       4    6    1         0.2908209603E+01      0.3743005149E+01
          0                 2           2             4    6     1       0.1820621549E-01       4    6    1         0.9908033125E+00      0.1061078701E+01
          0                 3           2             4    7     1      -0.3618631253E-01       4    7    1        -0.1896462667E+01      0.4452336044E+01
          0                 4           2             5    8     1       0.3523145514E-01       5    8    1         0.2000395135E+01      0.4172491720E+01
          0                 5           2             4    6     1       0.8899879659E-02       4    6    1         0.5073955092E+00      0.6634387110E+00
          0                 6           2             4    6     1       0.3359864937E-02       4    6    1         0.1922015486E+00      0.2185755050E+00
          0                 7           2             4    6     1       0.1265147316E-02       4    6    1         0.7253156498E-01      0.7710338779E-01
          0                 8           2             4    6     1       0.4755872655E-03       4    6    1         0.2730438732E-01      0.2810885415E-01
          0                 9           2             4    6     1       0.1785831924E-03       4    6    1         0.1026225419E-01      0.1040933346E-01
          0                10           1             4    6     1       0.6700940434E-04       4    6    1         0.3852985951E-02      0.3881559603E-02

    ------------------------------------------------
       NWT REQUIRED           10 OUTER ITERATIONS 
       AND A TOTAL OF         19 INNER ITERATIONS.
    ------------------------------------------------

 NO OUTPUT CONTROL FOR STRESS PERIOD   22   TIME STEP    6
 
 SOLVING FOR HEAD 
                                                   Max.-Head-Change                         Max.-Flux-Residual
  Residual-Control   Outer-Iter.   Inner-Iter.     Column Row Layer    Maximum-Head-Change  Column Row Layer    Maximum-Flux-Residual          L2-NORM 
          0                 1           2             4    6     1       0.4903704979E-01       4    6    1         0.2695986782E+01      0.3413585565E+01
          0                 2           2             4    6     1       0.1650179797E-01       4    6    1         0.9037112744E+00      0.9361340127E+00
          0                 3           2             4    7     1      -0.3547032275E-01       4    8    1        -0.1866773390E+01      0.4469799857E+01
          0                 4           2             4    7     1       0.3795750070E-01       4    7    1         0.2058028294E+01      0.4489937566E+01
          0                 5           2             4    6     1       0.8749817546E-02       4    6    1         0.5081496401E+00      0.5901511578E+00
          0                 6           2             4    6     1       0.3276364663E-02       4    6    1         0.1885714191E+00      0.1946368843E+00
          0                 7           2             4    6     1       0.1226758291E-02       4    6    1         0.7067094995E-01      0.7161805422E-01
          0                 8           2             4    6     1       0.4593100639E-03       4    6    1         0.2645959466E-01      0.2661059985E-01
          0                 9           2             4    6     1       0.1719640297E-03       4    6    1         0.9906474304E-02      0.9930592356E-02
          0                10           1             4    6     1       0.6438087710E-04       4    6    1         0.3708850914E-02      0.3712720828E-02

    ------------------------------------------------
       NWT REQUIRED           10 OUTER ITERATIONS 
       AND A TOTAL OF         19 INNER ITERATIONS.
    ------------------------------------------------

 NO OUTPUT CONTROL FOR STRESS PERIOD   22   TIME STEP    7
 
 SOLVING FOR HEAD 
                                                   Max.-Head-Change                         Max.-Flux-Residual
  Residual-Control   Outer-Iter.   Inner-Iter.     Column Row Layer    Maximum-Head-Change  Column Row Layer    Maximum-Flux-Residual          L2-NORM 
          0                 1           2             4    6     1       0.4473301941E-01       4    6    1         0.2458945651E+01      0.3169105312E+01
          0                 2           2             4    6     1       0.1508349998E-01       4    6    1         0.8244344130E+00      0.8429254284E+00
          0                 3           2             4    7     1      -0.3560135416E-01       5    7    1        -0.1867158234E+01      0.4485521285E+01
          0                 4           2             4    7     1       0.3797108648E-01       4    7    1         0.2058715034E+01      0.4493510208E+01
          0                 5           2             4    6     1       0.8688820403E-02       4    6    1         0.5046494359E+00      0.5844804104E+00
          0                 6           2             4    6     1       0.3253450756E-02       4    6    1         0.1872551173E+00      0.1929022743E+00
          0                 7           2             4    6     1       0.1218153360E-02       4    6    1         0.7017658238E-01      0.7105648122E-01
          0                 8           2             4    6     1       0.4560793316E-03       4    6    1         0.2627394864E-01      0.2641432156E-01
          0                 9           2             4    6     1       0.1707512271E-03       4    6    1         0.9836775526E-02      0.9859213961E-02
          0                10           1             4    6     1       0.6392564272E-04       4    6    1         0.3682687073E-02      0.3686291184E-02

    ------------------------------------------------
       NWT REQUIRED           10 OUTER ITERATIONS 
       AND A TOTAL OF         19 INNER ITERATIONS.
    ------------------------------------------------

 NO OUTPUT CONTROL FOR STRESS PERIOD   22   TIME STEP    8
 
 SOLVING FOR HEAD 
                                                   Max.-Head-Change                         Max.-Flux-Residual
  Residual-Control   Outer-Iter.   Inner-Iter.     Column Row Layer    Maximum-Head-Change  Column Row Layer    Maximum-Flux-Residual          L2-NORM 
          0                 1           2             4    6     1       0.4085443912E-01       4    6    1         0.2244646688E+01      0.2936610022E+01
          0                 2           2             4    6     1       0.1379211637E-01       4    6    1         0.7530627323E+00      0.7686689104E+00
          0                 3           2             4    7     1      -0.3567134319E-01       5    6    1        -0.1869283007E+01      0.4497591877E+01
          0                 4           2             4    7     1       0.3797837166E-01       4    7    1         0.2059071217E+01      0.4446331216E+01
          0                 5           2             4    6     1       0.8633288774E-02       4    6    1         0.4997415215E+00      0.5595012333E+00
          0                 6           2             4    6     1       0.3232592934E-02       4    6    1         0.1861383063E+00      0.1913702118E+00
          0                 7           2             4    6     1       0.1210321217E-02       4    6    1         0.6972303240E-01      0.7054921961E-01
          0                 8           2             4    6     1       0.4531389447E-03       4    6    1         0.2610397454E-01      0.2623593821E-01
          0                 9           2             4    6     1       0.1696474814E-03       4    6    1         0.9772971179E-02      0.9794110032E-02
          0                10           1             4    6     1       0.6351136536E-04       4    6    1         0.3658741281E-02      0.3662150896E-02

    ------------------------------------------------
       NWT REQUIRED           10 OUTER ITERATIONS 
       AND A TOTAL OF         19 INNER ITERATIONS.
    ------------------------------------------------

 NO OUTPUT CONTROL FOR STRESS PERIOD   22   TIME STEP    9
 
 SOLVING FOR HEAD 
                                                   Max.-Head-Change                         Max.-Flux-Residual
  Residual-Control   Outer-Iter.   Inner-Iter.     Column Row Layer    Maximum-Head-Change  Column Row Layer    Maximum-Flux-Residual          L2-NORM 
          0                 1           2             4    6     1       0.3735967285E-01       4    6    1         0.2050864642E+01      0.2715091885E+01
          0                 2           2             4    6     1       0.1261527106E-01       4    6    1         0.6888225976E+00      0.7046244770E+00
          0                 3           2             4    7     1      -0.3568623493E-01       5    6    1        -0.1869787810E+01      0.4506411441E+01
          0                 4           2             4    7     1       0.3797999301E-01       4    7    1         0.2059129028E+01      0.4448061200E+01
          0                 5           2             4    6     1       0.8582691171E-02       4    6    1         0.4968358989E+00      0.5551170927E+00
          0                 6           2             4    6     1       0.3213589888E-02       4    6    1         0.1850466104E+00      0.1900098500E+00
          0                 7           2             4    6     1       0.1203186147E-02       4    6    1         0.6931307588E-01      0.7009625267E-01
          0                 8           2             4    6     1       0.4504604326E-03       4    6    1         0.2595005124E-01      0.2607520579E-01
          0                 9           2             4    6     1       0.1686420922E-03       4    6    1         0.9715189397E-02      0.9735251200E-02
          0                10           1             4    6     1       0.6313402227E-04       4    6    1         0.3637053161E-02      0.3640292026E-02

    ------------------------------------------------
       NWT REQUIRED           10 OUTER ITERATIONS 
       AND A TOTAL OF         19 INNER ITERATIONS.
    ------------------------------------------------

 NO OUTPUT CONTROL FOR STRESS PERIOD   22   TIME STEP   10
 
 SOLVING FOR HEAD 
                                                   Max.-Head-Change                         Max.-Flux-Residual
  Residual-Control   Outer-Iter.   Inner-Iter.     Column Row Layer    Maximum-Head-Change  Column Row Layer    Maximum-Flux-Residual          L2-NORM 
          0                 1           2             4    6     1       0.3421079469E-01       4    6    1         0.1875571291E+01      0.2504950842E+01
          0                 2           2             4    6     1       0.1154166609E-01       4    6    1         0.6310094318E+00      0.6488756018E+00
          0                 3           2             4    7     1      -0.3565137848E-01       5    7    1        -0.1869113976E+01      0.4512518872E+01
          0                 4           2             4    7     1       0.3797652322E-01       4    7    1         0.2058917545E+01      0.4498842202E+01
          0                 5           2             4    6     1       0.8536540559E-02       4    6    1         0.4959056518E+00      0.5716142544E+00
          0                 6           2             4    6     1       0.3196258281E-02       4    6    1         0.1839691840E+00      0.1888010013E+00
          0                 7           2             4    6     1       0.1196679188E-02       4    6    1         0.6894266680E-01      0.6969149622E-01
          0                 8           2             4    6     1       0.4480178687E-03       4    6    1         0.2581066136E-01      0.2593028628E-01
          0                 9           2             4    6     1       0.1677253155E-03       4    6    1         0.9662861651E-02      0.9682018664E-02
          0                10           1             4    6     1       0.6278995311E-04       4    6    1         0.3617409527E-02      0.3620493544E-02

    ------------------------------------------------
       NWT REQUIRED           10 OUTER ITERATIONS 
       AND A TOTAL OF         19 INNER ITERATIONS.
    ------------------------------------------------

 NO OUTPUT CONTROL FOR STRESS PERIOD   22   TIME STEP   11
 
 SOLVING FOR HEAD 
                                                   Max.-Head-Change                         Max.-Flux-Residual
  Residual-Control   Outer-Iter.   Inner-Iter.     Column Row Layer    Maximum-Head-Change  Column Row Layer    Maximum-Flux-Residual          L2-NORM 
          0                 1           2             4    6     1       0.3137427323E-01       4    6    1         0.1716974763E+01      0.2308104138E+01
          0                 2           2             4    6     1       0.1056133375E-01       4    6    1         0.5790001611E+00      0.6069642512E+00
          0                 3           2             4    7     1      -0.3557157634E-01       5    7    1        -0.1869912774E+01      0.4515878763E+01
          0                 4           2             4    7     1       0.3796847005E-01       4    7    1         0.2058462413E+01      0.4499192863E+01
          0                 5           2             4    6     1       0.8497200386E-02       4    6    1         0.4934843977E+00      0.5655743368E+00
          0                 6           2             4    6     1       0.3178685871E-02       4    6    1         0.1831269361E+00      0.1877965689E+00
          0                 7           2             4    6     1       0.1190083751E-02       4    6    1         0.6856048875E-01      0.6927641630E-01
          0                 8           2             4    6     1       0.4455428045E-03       4    6    1         0.2566841398E-01      0.2578285101E-01
          0                 9           2             4    6     1       0.1667966003E-03       4    6    1         0.9609467078E-02      0.9627801764E-02
          0                10           1             4    6     1       0.6244149861E-04       4    6    1         0.3597375106E-02      0.3600328657E-02

    ------------------------------------------------
       NWT REQUIRED           10 OUTER ITERATIONS 
       AND A TOTAL OF         19 INNER ITERATIONS.
    ------------------------------------------------

 NO OUTPUT CONTROL FOR STRESS PERIOD   22   TIME STEP   12
 
 SOLVING FOR HEAD 
                                                   Max.-Head-Change                         Max.-Flux-Residual
  Residual-Control   Outer-Iter.   Inner-Iter.     Column Row Layer    Maximum-Head-Change  Column Row Layer    Maximum-Flux-Residual          L2-NORM 
          0                 1           2             4    6     1       0.2881945989E-01       4    6    1         0.1573435620E+01      0.2128164832E+01
          0                 2           2             4    6     1       0.9709888393E-02       4    6    1         0.5322254369E+00      0.5577462662E+00
          0                 3           2             4    7     1      -0.3596304695E-01       4    7    1        -0.1881838788E+01      0.4538241648E+01
          0                 4           2             4    7     1       0.3672765279E-01       5    8    1         0.2000588429E+01      0.4439635271E+01
          0                 5           2             4    6     1       0.8484290386E-02       4    6    1         0.4904635860E+00      0.5325845324E+00
          0                 6           2             4    6     1       0.3169641948E-02       4    6    1         0.1829416408E+00      0.1881620812E+00
          0                 7           2             4    6     1       0.1185500766E-02       4    6    1         0.6835525338E-01      0.6911459766E-01
          0                 8           2             4    6     1       0.4437109726E-03       4    6    1         0.2556816226E-01      0.2568049392E-01
          0                 9           2             4    6     1       0.1661436560E-03       4    6    1         0.9569883903E-02      0.9588425879E-02
          0                10           1             4    6     1       0.6222754311E-04       4    6    1         0.3583315077E-02      0.3587439282E-02

    ------------------------------------------------
       NWT REQUIRED           10 OUTER ITERATIONS 
       AND A TOTAL OF         19 INNER ITERATIONS.
    ------------------------------------------------

 NO OUTPUT CONTROL FOR STRESS PERIOD   22   TIME STEP   13
 
 SOLVING FOR HEAD 
                                                   Max.-Head-Change                         Max.-Flux-Residual
  Residual-Control   Outer-Iter.   Inner-Iter.     Column Row Layer    Maximum-Head-Change  Column Row Layer    Maximum-Flux-Residual          L2-NORM 
          0                 1           2             4    6     1      -0.3287405282E-01       4    6    1        -0.1793358988E+01      0.2251385901E+01
          0                 2           2             4    6     1      -0.6228090550E-02       4    6    1        -0.3368469727E+00      0.3732743169E+00
          0                 3           2             4    7     1      -0.3606009196E-01       4    7    1        -0.1885039708E+01      0.4597015697E+01
          0                 4           2             4    6     1       0.3764502880E-01       4    6    1         0.2053635542E+01      0.4696776836E+01
          0                 5           2             4    6     1      -0.2505612989E-02       4    6    1        -0.1437739705E+00      0.2388702525E+00
          0                 6           2             4    8     1       0.5198613857E-03       4    8    1         0.2989463579E-01      0.4164424255E-01
          0                 7           2             4    8     1       0.1272219290E-03       4    8    1         0.7315207043E-02      0.9929908861E-02
          0                 8           1             4    8     1       0.3114931185E-04       4    8    1         0.1790302835E-02      0.2396473126E-02

    ------------------------------------------------
       NWT REQUIRED            8 OUTER ITERATIONS 
       AND A TOTAL OF         15 INNER ITERATIONS.
    ------------------------------------------------

 NO OUTPUT CONTROL FOR STRESS PERIOD   22   TIME STEP   14
 
 SOLVING FOR HEAD 
                                                   Max.-Head-Change                         Max.-Flux-Residual
  Residual-Control   Outer-Iter.   Inner-Iter.     Column Row Layer    Maximum-Head-Change  Column Row Layer    Maximum-Flux-Residual          L2-NORM 
          0                 1           2             4    6     1      -0.3845601140E-01       4    6    1        -0.2096659968E+01      0.2474852178E+01
          0                 2           2             4    6     1       0.1789809058E-02       4    6    1         0.1030450075E+00      0.1894751048E+00
          0                 3           2             4    7     1      -0.3604948802E-01       4    7    1        -0.1883869363E+01      0.4612796369E+01
          0                 4           2             4    7     1       0.3640640891E-01       5    8    1         0.2000629152E+01      0.4654633493E+01
          0                 5           2             4    8     1       0.2103737728E-02       4    8    1         0.1221353730E+00      0.1910707942E+00
          0                 6           2             4    8     1       0.5143750622E-03       4    8    1         0.2958905199E-01      0.4081725727E-01
          0                 7           2             4    8     1       0.1258292003E-03       4    8    1         0.7237595955E-02      0.9828176422E-02
          0                 8           1             4    8     1       0.3079598318E-04       4    8    1         0.1770603414E-02      0.2369821968E-02

    ------------------------------------------------
       NWT REQUIRED            8 OUTER ITERATIONS 
       AND A TOTAL OF         15 INNER ITERATIONS.
    ------------------------------------------------

 NO OUTPUT CONTROL FOR STRESS PERIOD   22   TIME STEP   15
 
 SOLVING FOR HEAD 
                                                   Max.-Head-Change                         Max.-Flux-Residual
  Residual-Control   Outer-Iter.   Inner-Iter.     Column Row Layer    Maximum-Head-Change  Column Row Layer    Maximum-Flux-Residual          L2-NORM 
          0                 1           2             4    6     1      -0.3859041337E-01       4    6    1        -0.2103050890E+01      0.2458267945E+01
          0                 2           2             4    6     1       0.3703978450E-02       4    6    1         0.2102949625E+00      0.2620786413E+00
          0                 3           2             4    7     1      -0.3605040324E-01       4    6    1        -0.1884773905E+01      0.4616028457E+01
          0                 4           2             4    7     1       0.3645344702E-01       5    8    1         0.2000647859E+01      0.4657792759E+01
          0                 5           2             4    8     1       0.2081120926E-02       4    8    1         0.1208671083E+00      0.1895886831E+00
          0                 6           2             4    8     1       0.5086754800E-03       4    8    1         0.2926942466E-01      0.4039613916E-01
          0                 7           2             4    8     1       0.1243931190E-03       4    8    1         0.7157056421E-02      0.9720140025E-02
          0                 8           1             4    8     1       0.3043420756E-04       4    8    1         0.1750311691E-02      0.2342106997E-02

    ------------------------------------------------
       NWT REQUIRED            8 OUTER ITERATIONS 
       AND A TOTAL OF         15 INNER ITERATIONS.
    ------------------------------------------------

 NO OUTPUT CONTROL FOR STRESS PERIOD   22   TIME STEP   16
 
 SOLVING FOR HEAD 
                                                   Max.-Head-Change                         Max.-Flux-Residual
  Residual-Control   Outer-Iter.   Inner-Iter.     Column Row Layer    Maximum-Head-Change  Column Row Layer    Maximum-Flux-Residual          L2-NORM 
          0                 1           2             4    6     1      -0.3687143311E-01       4    6    1        -0.2008489083E+01      0.2357648856E+01
          0                 2           2             4    6     1       0.3536276265E-02       4    6    1         0.2008397454E+00      0.2528469315E+00
          0                 3           2             4    7     1      -0.3605467664E-01       4    6    1        -0.1884112371E+01      0.4616143113E+01
          0                 4           2             4    7     1       0.3648911856E-01       5    8    1         0.1999741321E+01      0.4681988696E+01
          0                 5           2             4    8     1       0.2058045681E-02       4    8    1         0.1195597297E+00      0.1660285050E+00
          0                 6           2             4    8     1       0.5028323886E-03       4    8    1         0.2894377945E-01      0.3361838841E-01
          0                 7           2             4    8     1       0.1229003121E-03       4    8    1         0.7074532664E-02      0.7997649004E-02
          0                 8           1             4    8     1       0.3004957457E-04       4    8    1         0.1729205545E-02      0.1911332402E-02

    ------------------------------------------------
       NWT REQUIRED            8 OUTER ITERATIONS 
       AND A TOTAL OF         15 INNER ITERATIONS.
    ------------------------------------------------

 NO OUTPUT CONTROL FOR STRESS PERIOD   22   TIME STEP   17
 
 SOLVING FOR HEAD 
                                                   Max.-Head-Change                         Max.-Flux-Residual
  Residual-Control   Outer-Iter.   Inner-Iter.     Column Row Layer    Maximum-Head-Change  Column Row Layer    Maximum-Flux-Residual          L2-NORM 
          0                 1           2             4    6     1      -0.3524752923E-01       4    6    1        -0.1919200166E+01      0.2263425923E+01
          0                 2           2             4    6     1       0.3378005421E-02       4    6    1         0.1919117162E+00      0.2441826303E+00
          0                 3           2             4    7     1      -0.3605793146E-01       4    7    1        -0.1884220795E+01      0.4616249260E+01
          0                 4           2             4    7     1       0.3651588403E-01       5    8    1         0.1999757607E+01      0.4684208771E+01
          0                 5           2             4    8     1       0.2034496691E-02       4    8    1         0.1182257215E+00      0.1645535758E+00
          0                 6           2             4    8     1       0.4969647358E-03       4    8    1         0.2861152825E-01      0.3322815063E-01
          0                 7           2             4    8     1       0.1214378769E-03       4    8    1         0.6991749063E-02      0.7906525767E-02
          0                 8           1             4    8     1       0.2968499781E-04       4    8    1         0.1708572650E-02      0.1889706666E-02

    ------------------------------------------------
       NWT REQUIRED            8 OUTER ITERATIONS 
       AND A TOTAL OF         15 INNER ITERATIONS.
    ------------------------------------------------

 NO OUTPUT CONTROL FOR STRESS PERIOD   22   TIME STEP   18
 
 SOLVING FOR HEAD 
                                                   Max.-Head-Change                         Max.-Flux-Residual
  Residual-Control   Outer-Iter.   Inner-Iter.     Column Row Layer    Maximum-Head-Change  Column Row Layer    Maximum-Flux-Residual          L2-NORM 
          0                 1           2             4    6     1      -0.3371259504E-01       4    6    1        -0.1834844103E+01      0.2217830889E+01
          0                 2           2             4    6     1       0.3228596662E-02       4    6    1         0.1834768828E+00      0.2645251960E+00
          0                 3           2             4    7     1      -0.3605908487E-01       4    7    1        -0.1884318643E+01      0.4606662450E+01
          0                 4           2             4    7     1       0.3652991087E-01       4    7    1         0.1966901393E+01      0.4529006319E+01
          0                 5           2             5    8     1       0.4305843097E-02       5    8    1         0.2481400848E+00      0.2856642699E+00
          0                 6           2             5    8     1       0.1051672565E-02       5    8    1         0.6060896392E-01      0.6965069686E-01
          0                 7           2             5    8     1       0.2568540267E-03       5    8    1         0.1480234734E-01      0.1704086273E-01
          0                 8           1             5    8     1       0.6273214130E-04       5    8    1         0.3615029710E-02      0.4172308475E-02

    ------------------------------------------------
       NWT REQUIRED            8 OUTER ITERATIONS 
       AND A TOTAL OF         15 INNER ITERATIONS.
    ------------------------------------------------

 NO OUTPUT CONTROL FOR STRESS PERIOD   22   TIME STEP   19
 
 SOLVING FOR HEAD 
                                                   Max.-Head-Change                         Max.-Flux-Residual
  Residual-Control   Outer-Iter.   Inner-Iter.     Column Row Layer    Maximum-Head-Change  Column Row Layer    Maximum-Flux-Residual          L2-NORM 
          0                 1           2             4    6     1      -0.3226050795E-01       4    6    1        -0.1755085426E+01      0.2145202547E+01
          0                 2           2             4    6     1       0.3087406360E-02       4    6    1         0.1755017083E+00      0.2589759996E+00
          0                 3           2             4    7     1      -0.3605996421E-01       4    7    1        -0.1884374703E+01      0.4606294876E+01
          0                 4           2             4    7     1       0.3653731920E-01       4    7    1         0.1967344607E+01      0.4507009043E+01
          0                 5           2             5    8     1       0.5125180597E-02       5    8    1         0.2958311323E+00      0.3278793076E+00
          0                 6           2             5    8     1       0.1249490238E-02       5    8    1         0.7211717111E-01      0.7994945118E-01
          0                 7           2             5    8     1       0.3046391053E-03       5    8    1         0.1758105508E-01      0.1954648613E-01
          0                 8           1             5    8     1       0.7428083064E-04       5    8    1         0.4286301019E-02      0.4781766983E-02

    ------------------------------------------------
       NWT REQUIRED            8 OUTER ITERATIONS 
       AND A TOTAL OF         15 INNER ITERATIONS.
    ------------------------------------------------

 NO OUTPUT CONTROL FOR STRESS PERIOD   22   TIME STEP   20
 
 SOLVING FOR HEAD 
                                                   Max.-Head-Change                         Max.-Flux-Residual
  Residual-Control   Outer-Iter.   Inner-Iter.     Column Row Layer    Maximum-Head-Change  Column Row Layer    Maximum-Flux-Residual          L2-NORM 
          0                 1           2             4    6     1      -0.3088629241E-01       4    6    1        -0.1679642887E+01      0.2058990465E+01
          0                 2           2             4    6     1       0.2953927469E-02       4    6    1         0.1679580766E+00      0.2478531261E+00
          0                 3           2             4    7     1      -0.3606014107E-01       4    7    1        -0.1884388532E+01      0.4606929961E+01
          0                 4           2             4    7     1       0.3653823535E-01       4    7    1         0.1967383269E+01      0.4513252299E+01
          0                 5           2             5    8     1       0.4870941069E-02       5    8    1         0.2810374396E+00      0.3145096452E+00
          0                 6           2             5    8     1       0.1188084712E-02       5    8    1         0.6854587815E-01      0.7669348676E-01
          0                 7           2             5    8     1       0.2898010196E-03       5    8    1         0.1671843797E-01      0.1875534716E-01
          0                 8           1             5    8     1       0.7069372239E-04       5    8    1         0.4077846073E-02      0.4589535508E-02

    ------------------------------------------------
       NWT REQUIRED            8 OUTER ITERATIONS 
       AND A TOTAL OF         15 INNER ITERATIONS.
    ------------------------------------------------

 NO OUTPUT CONTROL FOR STRESS PERIOD   22   TIME STEP   21
 
 SOLVING FOR HEAD 
                                                   Max.-Head-Change                         Max.-Flux-Residual
  Residual-Control   Outer-Iter.   Inner-Iter.     Column Row Layer    Maximum-Head-Change  Column Row Layer    Maximum-Flux-Residual          L2-NORM 
          0                 1           2             4    6     1      -0.2958481419E-01       4    6    1        -0.1608229052E+01      0.1978746011E+01
          0                 2           2             4    6     1       0.2827643344E-02       4    6    1         0.1608172527E+00      0.2375818278E+00
          0                 3           2             4    7     1      -0.3605956314E-01       4    7    1        -0.1884363685E+01      0.4607500610E+01
          0                 4           2             4    7     1       0.3653278579E-01       4    7    1         0.1967066371E+01      0.4518971774E+01
          0                 5           2             5    8     1       0.4633890261E-02       5    8    1         0.2672470164E+00      0.3020825159E+00
          0                 6           2             5    8     1       0.1127868729E-02       5    8    1         0.6513418299E-01      0.7362776926E-01
          0                 7           2             5    8     1       0.2748266668E-03       5    8    1         0.1586881022E-01      0.1799925538E-01
          0                 8           1             5    8     1       0.6697589613E-04       5    8    1         0.3866616972E-02      0.4403486157E-02

    ------------------------------------------------
       NWT REQUIRED            8 OUTER ITERATIONS 
       AND A TOTAL OF         15 INNER ITERATIONS.
    ------------------------------------------------

 NO OUTPUT CONTROL FOR STRESS PERIOD   22   TIME STEP   22
 
 SOLVING FOR HEAD 
                                                   Max.-Head-Change                         Max.-Flux-Residual
  Residual-Control   Outer-Iter.   Inner-Iter.     Column Row Layer    Maximum-Head-Change  Column Row Layer    Maximum-Flux-Residual          L2-NORM 
          0                 1           2             4    6     1      -0.2835104610E-01       4    6    1        -0.1540563782E+01      0.1903928279E+01
          0                 2           2             4    6     1       0.2708047091E-02       4    6    1         0.1540512295E+00      0.2279171232E+00
          0                 3           2             4    7     1      -0.3605840683E-01       4    7    1        -0.1884303165E+01      0.4608012795E+01
          0                 4           2             4    7     1       0.3652199137E-01       4    7    1         0.1966444768E+01      0.4524174914E+01
          0                 5           2             5    8     1       0.4411367370E-02       5    8    1         0.2546609461E+00      0.2906659008E+00
          0                 6           2             5    8     1       0.1075370657E-02       5    8    1         0.6207500683E-01      0.7084027796E-01
          0                 7           2             5    8     1       0.2621688635E-03       5    8    1         0.1513152428E-01      0.1732373436E-01
          0                 8           1             5    8     1       0.6392254520E-04       5    8    1         0.3688841224E-02      0.4239749300E-02

    ------------------------------------------------
       NWT REQUIRED            8 OUTER ITERATIONS 
       AND A TOTAL OF         15 INNER ITERATIONS.
    ------------------------------------------------

 NO OUTPUT CONTROL FOR STRESS PERIOD   22   TIME STEP   23
 
 SOLVING FOR HEAD 
                                                   Max.-Head-Change                         Max.-Flux-Residual
  Residual-Control   Outer-Iter.   Inner-Iter.     Column Row Layer    Maximum-Head-Change  Column Row Layer    Maximum-Flux-Residual          L2-NORM 
          0                 1           2             4    6     1      -0.2718142494E-01       4    6    1        -0.1476447234E+01      0.1833786344E+01
          0                 2           2             4    6     1       0.2594780649E-02       4    6    1         0.1476404749E+00      0.2190222812E+00
          0                 3           2             4    7     1      -0.3605674564E-01       4    7    1        -0.1884214801E+01      0.4608471236E+01
          0                 4           2             4    7     1       0.3650651388E-01       4    7    1         0.1965555007E+01      0.4528910587E+01
          0                 5           2             5    8     1       0.4208941217E-02       5    8    1         0.2428729030E+00      0.2800249163E+00
          0                 6           2             5    8     1       0.1026573991E-02       5    8    1         0.5923352291E-01      0.6825491575E-01
          0                 7           2             5    8     1       0.2504008332E-03       5    8    1         0.1444654544E-01      0.1669741683E-01
          0                 8           1             5    8     1       0.6108330022E-04       5    8    1         0.3523642722E-02      0.4087991743E-02

    ------------------------------------------------
       NWT REQUIRED            8 OUTER ITERATIONS 
       AND A TOTAL OF         15 INNER ITERATIONS.
    ------------------------------------------------

 NO OUTPUT CONTROL FOR STRESS PERIOD   22   TIME STEP   24
 
 SOLVING FOR HEAD 
                                                   Max.-Head-Change                         Max.-Flux-Residual
  Residual-Control   Outer-Iter.   Inner-Iter.     Column Row Layer    Maximum-Head-Change  Column Row Layer    Maximum-Flux-Residual          L2-NORM 
          0                 1           2             4    6     1      -0.2607157105E-01       4    6    1        -0.1415635899E+01      0.1768340544E+01
          0                 2           2             4    6     1       0.2487408632E-02       4    6    1         0.1415608448E+00      0.2107933512E+00
          0                 3           2             4    7     1      -0.3605466096E-01       4    7    1        -0.1884102656E+01      0.4608880473E+01
          0                 4           2             4    7     1       0.3648718309E-01       4    7    1         0.1964444932E+01      0.4533232328E+01
          0                 5           2             5    8     1       0.4023714073E-02       5    8    1         0.2320915250E+00      0.2702264267E+00
          0                 6           2             5    8     1       0.9818978636E-03       5    8    1         0.5663298794E-01      0.6587282042E-01
          0                 7           2             5    8     1       0.2396208547E-03       5    8    1         0.1381929999E-01      0.1612029747E-01
          0                 8           1             5    8     1       0.5848117167E-04       5    8    1         0.3372289583E-02      0.3948142655E-02

    ------------------------------------------------
       NWT REQUIRED            8 OUTER ITERATIONS 
       AND A TOTAL OF         15 INNER ITERATIONS.
    ------------------------------------------------

 NO OUTPUT CONTROL FOR STRESS PERIOD   22   TIME STEP   25
 
 SOLVING FOR HEAD 
                                                   Max.-Head-Change                         Max.-Flux-Residual
  Residual-Control   Outer-Iter.   Inner-Iter.     Column Row Layer    Maximum-Head-Change  Column Row Layer    Maximum-Flux-Residual          L2-NORM 
          0                 1           2             4    6     1      -0.2501794571E-01       4    6    1        -0.1357933191E+01      0.1707207915E+01
          0                 2           2             4    6     1       0.2385546579E-02       4    6    1         0.1357907940E+00      0.2031661772E+00
          0                 3           2             4    7     1      -0.3605220244E-01       4    7    1        -0.1883969574E+01      0.4609244267E+01
          0                 4           2             4    7     1       0.3646451902E-01       4    7    1         0.1963144868E+01      0.4537152375E+01
          0                 5           2             5    8     1       0.3854173984E-02       5    8    1         0.2222190556E+00      0.2611869944E+00
          0                 6           2             5    8     1       0.9409834253E-03       5    8    1         0.5425129017E-01      0.6367555869E-01
          0                 7           2             5    8     1       0.2297436515E-03       5    8    1         0.1324452017E-01      0.1558796992E-01
          0                 8           1             5    8     1       0.5609587069E-04       5    8    1         0.3233528210E-02      0.3819147954E-02

    ------------------------------------------------
       NWT REQUIRED            8 OUTER ITERATIONS 
       AND A TOTAL OF         15 INNER ITERATIONS.
    ------------------------------------------------

 NO OUTPUT CONTROL FOR STRESS PERIOD   22   TIME STEP   26
 
 SOLVING FOR HEAD 
                                                   Max.-Head-Change                         Max.-Flux-Residual
  Residual-Control   Outer-Iter.   Inner-Iter.     Column Row Layer    Maximum-Head-Change  Column Row Layer    Maximum-Flux-Residual          L2-NORM 
          0                 1           2             4    6     1      -0.2401680180E-01       4    6    1        -0.1303128102E+01      0.1650011289E+01
          0                 2           2             4    6     1       0.2288835899E-02       4    6    1         0.1303104854E+00      0.1960804276E+00
          0                 3           2             4    7     1      -0.3604943977E-01       4    7    1        -0.1883819426E+01      0.4609567294E+01
          0                 4           2             4    7     1       0.3643908512E-01       4    7    1         0.1961687116E+01      0.4540710328E+01
          0                 5           2             5    8     1       0.3698659239E-02       5    8    1         0.2131674432E+00      0.2528321006E+00
          0                 6           2             5    8     1       0.9034338839E-03       5    8    1         0.5206639411E-01      0.6164444201E-01
          0                 7           2             5    8     1       0.2206743707E-03       5    8    1         0.1271696215E-01      0.1509595266E-01
          0                 8           1             5    8     1       0.5390469942E-04       5    8    1         0.3106106248E-02      0.3699932741E-02

    ------------------------------------------------
       NWT REQUIRED            8 OUTER ITERATIONS 
       AND A TOTAL OF         15 INNER ITERATIONS.
    ------------------------------------------------

 NO OUTPUT CONTROL FOR STRESS PERIOD   22   TIME STEP   27
 
 SOLVING FOR HEAD 
                                                   Max.-Head-Change                         Max.-Flux-Residual
  Residual-Control   Outer-Iter.   Inner-Iter.     Column Row Layer    Maximum-Head-Change  Column Row Layer    Maximum-Flux-Residual          L2-NORM 
          0                 1           2             4    6     1      -0.2306573138E-01       4    6    1        -0.1251085734E+01      0.1596479842E+01
          0                 2           2             4    6     1       0.2197033101E-02       4    6    1         0.1251064312E+00      0.1894937788E+00
          0                 3           2             4    7     1      -0.3604643041E-01       4    7    1        -0.1883655467E+01      0.4609851661E+01
          0                 4           2             4    7     1       0.3641144970E-01       4    7    1         0.1960104479E+01      0.4543921191E+01
          0                 5           2             5    8     1       0.3556064809E-02       5    8    1         0.2048713701E+00      0.2451138375E+00
          0                 6           2             5    8     1       0.8689872445E-03       5    8    1         0.5006283074E-01      0.5976802359E-01
          0                 7           2             5    8     1       0.2123508137E-03       5    8    1         0.1223295729E-01      0.1464150437E-01
          0                 8           1             5    8     1       0.5189287327E-04       5    8    1         0.2989152544E-02      0.3589839773E-02

    ------------------------------------------------
       NWT REQUIRED            8 OUTER ITERATIONS 
       AND A TOTAL OF         15 INNER ITERATIONS.
    ------------------------------------------------

 NO OUTPUT CONTROL FOR STRESS PERIOD   22   TIME STEP   28
 
 SOLVING FOR HEAD 
                                                   Max.-Head-Change                         Max.-Flux-Residual
  Residual-Control   Outer-Iter.   Inner-Iter.     Column Row Layer    Maximum-Head-Change  Column Row Layer    Maximum-Flux-Residual          L2-NORM 
          0                 1           2             4    6     1      -0.2216114125E-01       4    6    1        -0.1201607430E+01      0.1546294945E+01
          0                 2           2             4    6     1       0.2109781738E-02       4    6    1         0.1201587674E+00      0.1833561074E+00
          0                 3           2             4    7     1      -0.3604320586E-01       4    7    1        -0.1883479494E+01      0.4610100516E+01
          0                 4           2             4    7     1       0.3638173046E-01       4    7    1         0.1958404557E+01      0.4546799500E+01
          0                 5           2             5    8     1       0.3425235645E-02       5    8    1         0.1972626881E+00      0.2379887358E+00
          0                 6           2             5    8     1       0.8373691131E-03       5    8    1         0.4822442326E-01      0.5803427167E-01
          0                 7           2             5    8     1       0.2047077351E-03       5    8    1         0.1178866196E-01      0.1422176748E-01
          0                 8           1             5    8     1       0.5004486421E-04       5    8    1         0.2881753018E-02      0.3488205272E-02

    ------------------------------------------------
       NWT REQUIRED            8 OUTER ITERATIONS 
       AND A TOTAL OF         15 INNER ITERATIONS.
    ------------------------------------------------

 NO OUTPUT CONTROL FOR STRESS PERIOD   22   TIME STEP   29
 
 SOLVING FOR HEAD 
                                                   Max.-Head-Change                         Max.-Flux-Residual
  Residual-Control   Outer-Iter.   Inner-Iter.     Column Row Layer    Maximum-Head-Change  Column Row Layer    Maximum-Flux-Residual          L2-NORM 
          0                 1           2             4    6     1      -0.2130050141E-01       4    6    1        -0.1154551990E+01      0.1493884896E+01
          0                 2           2             4    6     1       0.2026828763E-02       4    6    1         0.1154533755E+00      0.1767638235E+00
          0                 3           2             4    7     1      -0.3603980852E-01       4    7    1        -0.1883293868E+01      0.4610299041E+01
          0                 4           2             4    7     1       0.3635087104E-01       4    7    1         0.1956639297E+01      0.4549467550E+01
          0                 5           2             5    8     1       0.3304760142E-02       5    8    1         0.1902593953E+00      0.2313691641E+00
          0                 6           2             5    8     1       0.8082377006E-03       5    8    1         0.4653133062E-01      0.5642386927E-01
          0                 7           2             5    8     1       0.1976623117E-03       5    8    1         0.1137927156E-01      0.1383197054E-01
          0                 8           1             5    8     1       0.4834058810E-04       5    8    1         0.2782743287E-02      0.3393808270E-02

    ------------------------------------------------
       NWT REQUIRED            8 OUTER ITERATIONS 
       AND A TOTAL OF         15 INNER ITERATIONS.
    ------------------------------------------------

 NO OUTPUT CONTROL FOR STRESS PERIOD   22   TIME STEP   30



 STREAM LISTING     PERIOD     22   STEP       30

 LAYER ROW COL. STREAM  RCH.  FLOW INTO     FLOW TO   FLOW OUT OF   OVRLND.     DIRECT     STREAM       STREAM     STREAM     STREAM   STREAMBED  STREAMBED
                SEG.NO.  NO.  STRM. RCH.    AQUIFER    STRM. RCH.    RUNOFF     PRECIP       ET          HEAD       DEPTH      WIDTH   CONDCTNC.   GRADIENT

   1    1    1     1     1    1.8324E+01  2.0985E-01   1.8114E+01  0.000E+00  0.000E+00  0.000E+00  1.09412E+03  1.071E+00  1.146E+01  5.155E-02  1.357E+00
   1    2    2     1     2    1.8114E+01  3.2368E-01   1.7790E+01  0.000E+00  0.000E+00  0.000E+00  1.08912E+03  1.066E+00  1.137E+01  7.960E-02  1.355E+00
   1    3    3     1     3    1.7790E+01  2.7478E-01   1.7515E+01  0.000E+00  0.000E+00  0.000E+00  1.08348E+03  1.061E+00  1.128E+01  6.766E-02  1.354E+00
   1    3    4     1     4    1.7515E+01  2.5199E-01   1.7263E+01  0.000E+00  0.000E+00  0.000E+00  1.07846E+03  1.056E+00  1.119E+01  6.212E-02  1.352E+00
   1    4    5     2     1    1.5263E+01  3.0363E-01   1.4960E+01  0.000E+00  0.000E+00  0.000E+00  1.07283E+03  8.927E-01  1.200E+01  7.800E-02  1.298E+00
   1    5    6     2     2    1.4960E+01  2.3299E-01   1.4727E+01  0.000E+00  0.000E+00  0.000E+00  1.06739E+03  8.832E-01  1.200E+01  6.000E-02  1.294E+00
   1    6    6     2     3    1.4727E+01  2.3249E-01   1.4494E+01  0.000E+00  0.000E+00  0.000E+00  1.06267E+03  8.749E-01  1.200E+01  6.000E-02  1.292E+00
   1    7    6     2     4    1.4494E+01  2.3199E-01   1.4262E+01  0.000E+00  0.000E+00  0.000E+00  1.05794E+03  8.665E-01  1.200E+01  6.000E-02  1.289E+00
   1    8    6     2     5    1.4262E+01  2.3149E-01   1.4031E+01  0.000E+00  0.000E+00  0.000E+00  1.05322E+03  8.581E-01  1.200E+01  6.000E-02  1.286E+00
   1    3    5     3     1    2.0000E+00  2.8252E-01   1.7175E+00  0.000E+00  0.000E+00  0.000E+00  1.07555E+03  1.909E+00  9.636E+00  7.227E-02  1.955E+00
   1    3    6     3     2    1.7175E+00  2.4905E-01   1.4684E+00  0.000E+00  0.000E+00  0.000E+00  1.07264E+03  1.727E+00  8.909E+00  6.682E-02  1.864E+00
   1    3    7     3     3    1.4684E+00  1.9718E-01   1.2712E+00  0.000E+00  0.000E+00  0.000E+00  1.06987E+03  1.555E+00  8.218E+00  5.547E-02  1.777E+00
   1    4    8     3     4    1.2712E+00  2.2567E-01   1.0456E+00  0.000E+00  0.000E+00  0.000E+00  1.06682E+03  1.364E+00  7.455E+00  6.709E-02  1.682E+00
   1    5    8     3     5    1.0456E+00  1.5790E-01   8.8768E-01  0.000E+00  0.000E+00  0.000E+00  1.06362E+03  1.164E+00  6.655E+00  4.991E-02  1.582E+00
   1    6    8     3     6    8.8768E-01  5.5980E-02   8.3170E-01  0.000E+00  0.000E+00  0.000E+00  1.06158E+03  1.036E+00  6.145E+00  1.844E-02  1.518E+00
   1    5   10     4     1    1.0000E+01  9.0919E-02   9.9091E+00  0.000E+00  0.000E+00  0.000E+00  1.07836E+03  6.368E-01  1.000E+01  2.500E-02  1.212E+00
   1    5    9     4     2    9.9091E+00  1.8158E-01   9.7275E+00  0.000E+00  0.000E+00  0.000E+00  1.07154E+03  6.315E-01  1.000E+01  5.000E-02  1.211E+00
   1    6    8     4     3    9.7275E+00  1.2689E-01   9.6006E+00  0.000E+00  0.000E+00  0.000E+00  1.06381E+03  6.256E-01  1.000E+01  3.500E-02  1.209E+00
   1    6    8     5     1    1.0432E+01  2.2686E-01   1.0205E+01  0.000E+00  0.000E+00  0.000E+00  1.05868E+03  6.790E-01  1.542E+01  6.166E-02  1.226E+00
   1    7    7     5     2    1.0205E+01  2.7894E-01   9.9265E+00  0.000E+00  0.000E+00  0.000E+00  1.05417E+03  6.732E-01  1.519E+01  7.594E-02  1.224E+00
   1    8    7     5     3    9.9265E+00  1.9221E-01   9.7343E+00  0.000E+00  0.000E+00  0.000E+00  1.04992E+03  6.676E-01  1.497E+01  5.241E-02  1.223E+00
   1    8    6     5     4    9.7343E+00  1.3577E-01   9.5985E+00  0.000E+00  0.000E+00  0.000E+00  1.04691E+03  6.637E-01  1.482E+01  3.706E-02  1.221E+00
   1    9    6     6     1    1.2409E+01  2.2786E-01   1.2181E+01  0.000E+00  0.000E+00  0.000E+00  1.04352E+03  7.977E-01  1.200E+01  6.000E-02  1.266E+00
   1   10    7     6     2    1.2181E+01  2.2733E-01   1.1954E+01  0.000E+00  0.000E+00  0.000E+00  1.03897E+03  7.888E-01  1.200E+01  6.000E-02  1.263E+00
   1   11    7     6     3    1.1954E+01  2.2679E-01   1.1727E+01  0.000E+00  0.000E+00  0.000E+00  1.03442E+03  7.798E-01  1.200E+01  6.000E-02  1.260E+00
   1   12    7     6     4    1.1727E+01  2.2625E-01   1.1501E+01  0.000E+00  0.000E+00  0.000E+00  1.02986E+03  7.708E-01  1.200E+01  6.000E-02  1.257E+00
   1   13    7     6     5    1.1501E+01 -6.9723E-02   1.1571E+01  0.000E+00  0.000E+00  0.000E+00  1.02668E+03  7.677E-01  1.200E+01  2.400E-01 -9.684E-02
   1   14    9     7     1    1.5000E+02  1.3443E+00   1.4866E+02  0.000E+00  0.000E+00  0.000E+00  1.03987E+03  2.288E+00  5.529E+01  5.593E-01  8.012E-01
   1   13    8     7     2    1.4866E+02  1.8634E+00   1.4679E+02  0.000E+00  0.000E+00  0.000E+00  1.03478E+03  2.279E+00  5.526E+01  6.148E-01  1.010E+00
   1   13    7     7     3    1.4679E+02  1.5202E+00   1.4527E+02  0.000E+00  0.000E+00  0.000E+00  1.02969E+03  2.270E+00  5.522E+01  5.584E-01  9.074E-01
   1   13    6     8     1    1.5684E+02  8.9147E-01   1.5595E+02  0.000E+00  0.000E+00  0.000E+00  1.02474E+03  2.861E+00  4.149E+01  4.228E-01  7.029E-01
   1   13    5     8     2    1.5595E+02  1.5633E-01   1.5580E+02  0.000E+00  0.000E+00  0.000E+00  1.01848E+03  2.858E+00  4.144E+01  4.223E-01  1.234E-01
   1   13    4     8     3    1.5580E+02 -2.4951E+00   1.5829E+02  0.000E+00  0.000E+00  0.000E+00  1.01224E+03  2.866E+00  4.155E+01  4.234E+00 -1.964E-01
   1   13    3     8     4    1.5829E+02 -3.6622E+00   1.6195E+02  0.000E+00  0.000E+00  0.000E+00  1.00601E+03  2.887E+00  4.186E+01  4.265E+00 -2.862E-01
   1   13    2     8     5    1.6195E+02 -2.5820E+00   1.6453E+02  0.000E+00  0.000E+00  0.000E+00  9.99783E+02  2.908E+00  4.216E+01  4.296E+00 -2.003E-01
   1   13    1     8     6    1.6453E+02 -1.9773E+00   1.6651E+02  0.000E+00  0.000E+00  0.000E+00  9.94798E+02  2.923E+00  4.238E+01  2.591E+00 -2.544E-01
   1    8    6     9     1    1.1220E+01  0.0000E+00   1.1220E+01  0.000E+00  0.000E+00  0.000E+00  1.08118E+03  2.428E+00  4.000E+00  0.000E+00  1.809E+00
   1    8    5     9     2    1.1220E+01  0.0000E+00   1.1220E+01  0.000E+00  0.000E+00  0.000E+00  1.08068E+03  2.428E+00  4.000E+00  0.000E+00  1.809E+00





UNSATURATED ZONE PACKAGE VOLUMETRIC BUDGET FOR  TIME STEP    30 STRESS PERIOD   22
  ------------------------------------------------------------------------------



     CUMULATIVE VOLUMES      L**3       RATES FOR THIS TIME STEP      L**3/T
     ------------------                 ------------------------

           IN:                                      IN:
           ---                                      ---
        INFILTRATION =  2818793906.1224          INFILTRATION =          12.0677

          OUT:                                     OUT:
          ----                                     ----
              UZF ET =   858388786.9659                UZF ET =          12.0675
        UZF RECHARGE =  1599445341.0923          UZF RECHARGE =           0.9900

            IN - OUT =   360959778.0641              IN - OUT =          -0.9898

          STORAGE:                                 STORAGE:
          --------                                 --------
      STORAGE CHANGE =   360956403.1624        STORAGE CHANGE =          -0.9898

 PERCENT DISCREPANCY IS DIFFERENCE BETWEEN IN-OUT MINUS CHANGE IN STORAGE
 DIVIDED BY THE AVERAGE OF IN AND OUT TIMES 100

 PERCENT DISCREPANCY =           0.00     PERCENT DISCREPANCY =           0.00






1
  VOLUMETRIC BUDGET FOR AGRICULTURAL FIELDS AT  END OF TIME STEP   30, STRESS PERIOD  22
  ------------------------------------------------------------------------------

     CUMULATIVE VOLUMES      L**3       RATES FOR THIS TIME STEP      L**3/T
     ------------------                 ------------------------

           IN:                                      IN:
           ---                                      ---
           AG WELLS      =  1742828032.0000             AG WELLS      =           0.0000
      DIVERSION SEGMENTS =  1029065024.0000        DIVERSION SEGMENTS =          11.2200
           GW IRRIGATION =           0.0000             GW IRRIGATION =           0.0000
           SW IRRIGATION =           0.0000             SW IRRIGATION =           0.0000
        SYSTEM LOSSES GW =           0.0000          SYSTEM LOSSES GW =           0.0000
        SYSTEM LOSSES SW =           0.0000          SYSTEM LOSSES SW =           0.0000

                TOTAL IN =  2771892992.0000                  TOTAL IN =          11.2200

          OUT:                                     OUT:
          ----                                     ----
           AG WELLS      =           0.0000             AG WELLS      =           0.0000
      DIVERSION SEGMENTS =           0.0000        DIVERSION SEGMENTS =           0.0000
           GW IRRIGATION =  1742828032.0000             GW IRRIGATION =           0.0000
           SW IRRIGATION =  1029085184.0000             SW IRRIGATION =          11.2202
        SYSTEM LOSSES GW =           0.0000          SYSTEM LOSSES GW =           0.0000
        SYSTEM LOSSES SW =           0.0000          SYSTEM LOSSES SW =           0.0000

               TOTAL OUT =  2771913216.0000                 TOTAL OUT =          11.2202

                IN - OUT =      -20224.0000                  IN - OUT =      -2.2411E-04

     PERCENT DISCREPANCY =          -0.00         PERCENT DISCREPANCY =          -0.00



1
  VOLUMETRIC BUDGET FOR ENTIRE MODEL AT END OF TIME STEP   30, STRESS PERIOD  22
  ------------------------------------------------------------------------------

     CUMULATIVE VOLUMES      L**3       RATES FOR THIS TIME STEP      L**3/T
     ------------------                 ------------------------

           IN:                                      IN:
           ---                                      ---
             STORAGE     =  1757689856.0000               STORAGE     =           2.7033
       CONSTANT HEAD     =           0.0000         CONSTANT HEAD     =           0.0000
     HEAD DEP BOUNDS     =    15816365.0000       HEAD DEP BOUNDS     =           0.2863
      STREAM LEAKAGE     =   662829568.0000        STREAM LEAKAGE     =          11.3782
        UZF RECHARGE     =  1599445120.0000          UZF RECHARGE     =           0.9900
               GW ET     =           0.0000                 GW ET     =           0.0000
     SURFACE LEAKAGE     =           0.0000       SURFACE LEAKAGE     =           0.0000
           AG WELLS      =           0.0000             AG WELLS      =           0.0000

                TOTAL IN =  4035780608.0000                  TOTAL IN =          15.3578

          OUT:                                     OUT:
          ----                                     ----
             STORAGE     =  1679888640.0000               STORAGE     =           4.2830
       CONSTANT HEAD     =           0.0000         CONSTANT HEAD     =           0.0000
     HEAD DEP BOUNDS     =    16014085.0000       HEAD DEP BOUNDS     =           0.2873
      STREAM LEAKAGE     =   596965312.0000        STREAM LEAKAGE     =          10.7863
        UZF RECHARGE     =           0.0000          UZF RECHARGE     =           0.0000
               GW ET     =      106432.0312                 GW ET     =           0.0000
     SURFACE LEAKAGE     =           0.0000       SURFACE LEAKAGE     =           0.0000
           AG WELLS      =  1742828032.0000             AG WELLS      =           0.0000

               TOTAL OUT =  4035802624.0000                 TOTAL OUT =          15.3566

                IN - OUT =      -22016.0000                  IN - OUT =       1.2159E-03

     PERCENT DISCREPANCY =          -0.00         PERCENT DISCREPANCY =           0.01






         TIME SUMMARY AT END OF TIME STEP   30 IN STRESS PERIOD   22
                    SECONDS     MINUTES      HOURS       DAYS        YEARS
                    -----------------------------------------------------------
   TIME STEP LENGTH  87667.      1461.1      24.352      1.0147     2.77799E-03
 STRESS PERIOD TIME 2.63000E+06  43833.      730.56      30.440     8.33397E-02
         TOTAL TIME 5.53166E+07 9.21944E+05  15366.      640.24      1.7529    
1
1
                            STRESS PERIOD NO.   23, LENGTH =   2630000.    
                            -----------------------------------------------

                              NUMBER OF TIME STEPS =    30

                               MULTIPLIER FOR DELT =     1.000

                            INITIAL TIME STEP SIZE =   87666.66    

 REUSING NON-PARAMETER GHB CELLS FROM LAST STRESS PERIOD

      2 GHB CELLS

 REUSING STREAM SEGMENT DATA FROM LAST STRESS PERIOD



            AREAL INFILTRATION RATE
 READING ON UNIT   19 WITH FORMAT: (FREE)              

            1           2           3           4           5           6           7           8           9          10
 ........................................................................................................................
   1   1.0000E-10  2.0000E-10   0.000       0.000       0.000       0.000       0.000       0.000       0.000       0.000    
   2   2.0000E-10  1.0000E-10  2.0000E-10   0.000       0.000      8.0000E-10  8.0000E-10  5.0000E-10   0.000       0.000    
   3    0.000      5.0000E-10  1.0000E-10  1.0000E-10  8.0000E-10  8.0000E-10  5.0000E-10  5.0000E-10   0.000       0.000    
   4   8.0000E-10  5.0000E-10  1.0000E-10  1.0000E-10  1.0000E-10  1.0000E-10  1.0000E-10  1.0000E-10  2.0000E-10   0.000    
   5   8.0000E-10  5.0000E-10  1.0000E-10  1.0000E-10  1.0000E-10  1.0000E-10  1.0000E-10  1.0000E-10  1.0000E-10  1.0000E-10
   6   8.0000E-10  5.0000E-10  5.0000E-10  2.0000E-10  2.0000E-10  1.0000E-10  1.0000E-10  1.0000E-10  1.0000E-10  5.0000E-10
   7   8.0000E-10  5.0000E-10  5.0000E-10  2.0000E-10  2.0000E-10  1.0000E-10  1.0000E-10  2.0000E-10  2.0000E-10   0.000    
   8    0.000      5.0000E-10  5.0000E-10  2.0000E-10  2.0000E-10  1.0000E-10  1.0000E-10  2.0000E-10  5.0000E-10   0.000    
   9    0.000      5.0000E-10  5.0000E-10  2.0000E-10  2.0000E-10  1.0000E-10  1.0000E-10  2.0000E-10  5.0000E-10   0.000    
  10    0.000      5.0000E-10  5.0000E-10  2.0000E-10  2.0000E-10  1.0000E-10  1.0000E-10  2.0000E-10  5.0000E-10  8.0000E-10
  11    0.000      1.0000E-10  1.0000E-10  1.0000E-10  1.0000E-10  1.0000E-10  1.0000E-10  2.0000E-10  5.0000E-10   0.000    
  12   1.0000E-10  1.0000E-10  1.0000E-10  1.0000E-10  1.0000E-10  1.0000E-10  1.0000E-10  1.0000E-10  2.0000E-10   0.000    
  13   1.0000E-10  1.0000E-10  2.0000E-10  2.0000E-10  2.0000E-10  2.0000E-10  2.0000E-10  1.0000E-10  1.0000E-10   0.000    
  14    0.000      2.0000E-10  5.0000E-10  5.0000E-10  5.0000E-10  5.0000E-10  5.0000E-10  2.0000E-10  1.0000E-10   0.000    
  15    0.000       0.000      8.0000E-10  8.0000E-10  8.0000E-10  8.0000E-10   0.000       0.000       0.000       0.000    

                  ET RATE =  5.000000E-09

 USING ET EXTINCTION DEPTH FROM PREVIOUS STRESS PERIOD. CURRENT PERIOD IS:      23

 USING EXTINCTION WATER CONTENT FROM PREVIOUS STRESS PERIOD. CURRENT PERIOD IS:      23

 USING AIR ENTRY PRESSURE FROM PREVIOUS STRESS PERIOD. CURRENT PERIOD IS:      23

 USING ROOT PRESSURE HEAD FROM PREVIOUS STRESS PERIOD. CURRENT PERIOD IS:      23

 USING ROOT ACTIVITY FROM PREVIOUS STRESS PERIOD. CURRENT PERIOD IS:      23

 PROCESSING AG STRESS PERIOD DATA

 READING AG STRESS PERIOD DATA

 READING IRRIGATION SEGMENT

 READING IRRIGATION WELL

 READING SUPPLEMENTAL WELL

 END PROCESSING AG STRESS PERIOD DATA OPTIONS
 
 SOLVING FOR HEAD 
                                                   Max.-Head-Change                         Max.-Flux-Residual
  Residual-Control   Outer-Iter.   Inner-Iter.     Column Row Layer    Maximum-Head-Change  Column Row Layer    Maximum-Flux-Residual          L2-NORM 
          0                 1           2             4    6     1      -0.2048148499E-01       4    6    1        -0.1109788686E+01      0.1428658607E+01
          0                 2           2             4    6     1       0.1947935638E-02       4    6    1         0.1109771949E+00      0.1682785785E+00
          0                 3           2             4    7     1      -0.2429011601E-03       4    7    1        -0.1310617003E-01      0.2171593783E-01
          0                 4           1             4    7     1      -0.4905911432E-04       4    7    1        -0.2672773053E-02      0.3954319103E-02

    ------------------------------------------------
       NWT REQUIRED            4 OUTER ITERATIONS 
       AND A TOTAL OF          7 INNER ITERATIONS.
    ------------------------------------------------

 NO OUTPUT CONTROL FOR STRESS PERIOD   23   TIME STEP    1
 
 SOLVING FOR HEAD 
                                                   Max.-Head-Change                         Max.-Flux-Residual
  Residual-Control   Outer-Iter.   Inner-Iter.     Column Row Layer    Maximum-Head-Change  Column Row Layer    Maximum-Flux-Residual          L2-NORM 
          0                 1           2             4    6     1      -0.1970136359E-01       4    6    1        -0.1067166789E+01      0.1379240488E+01
          0                 2           2             4    6     1       0.1872834677E-02       4    6    1         0.1067151326E+00      0.1621038048E+00
          0                 3           2             4    7     1      -0.2392644620E-03       4    7    1        -0.1290782808E-01      0.2097795299E-01
          0                 4           1             4    7     1      -0.4835149566E-04       4    7    1        -0.2633116271E-02      0.3827710034E-02

    ------------------------------------------------
       NWT REQUIRED            4 OUTER ITERATIONS 
       AND A TOTAL OF          7 INNER ITERATIONS.
    ------------------------------------------------

 NO OUTPUT CONTROL FOR STRESS PERIOD   23   TIME STEP    2
 
 SOLVING FOR HEAD 
                                                   Max.-Head-Change                         Max.-Flux-Residual
  Residual-Control   Outer-Iter.   Inner-Iter.     Column Row Layer    Maximum-Head-Change  Column Row Layer    Maximum-Flux-Residual          L2-NORM 
          0                 1           2             4    6     1      -0.1895843066E-01       4    6    1        -0.1026591970E+01      0.1333258054E+01
          0                 2           2             4    6     1       0.1801359409E-02       4    6    1         0.1026577674E+00      0.1567891146E+00
          0                 3           2             4    7     1      -0.2355430017E-03       4    7    1        -0.1270479574E-01      0.2031019398E-01
          0                 4           1             4    7     1      -0.4762592002E-04       4    7    1        -0.2592524220E-02      0.3710715969E-02

    ------------------------------------------------
       NWT REQUIRED            4 OUTER ITERATIONS 
       AND A TOTAL OF          7 INNER ITERATIONS.
    ------------------------------------------------

 NO OUTPUT CONTROL FOR STRESS PERIOD   23   TIME STEP    3
 
 SOLVING FOR HEAD 
                                                   Max.-Head-Change                         Max.-Flux-Residual
  Residual-Control   Outer-Iter.   Inner-Iter.     Column Row Layer    Maximum-Head-Change  Column Row Layer    Maximum-Flux-Residual          L2-NORM 
          0                 1           2             4    6     1      -0.1824999036E-01       4    6    1        -0.9879150393E+00      0.1290117189E+01
          0                 2           2             4    6     1       0.1733243923E-02       4    6    1         0.9879018129E-01      0.1518087767E+00
          0                 3           2             4    7     1      -0.2317583649E-03       4    7    1        -0.1249828910E-01      0.1968840496E-01
          0                 4           1             4    7     1      -0.4688656852E-04       4    7    1        -0.2551218221E-02      0.3602128899E-02

    ------------------------------------------------
       NWT REQUIRED            4 OUTER ITERATIONS 
       AND A TOTAL OF          7 INNER ITERATIONS.
    ------------------------------------------------

 NO OUTPUT CONTROL FOR STRESS PERIOD   23   TIME STEP    4
 
 SOLVING FOR HEAD 
                                                   Max.-Head-Change                         Max.-Flux-Residual
  Residual-Control   Outer-Iter.   Inner-Iter.     Column Row Layer    Maximum-Head-Change  Column Row Layer    Maximum-Flux-Residual          L2-NORM 
          0                 1           2             4    6     1      -0.1757459733E-01       4    6    1        -0.9510559771E+00      0.1249598201E+01
          0                 2           2             4    6     1       0.1668344367E-02       4    6    1         0.9510437319E-01      0.1471349237E+00
          0                 3           2             4    7     1      -0.2279297213E-03       4    7    1        -0.1228926636E-01      0.1910826549E-01
          0                 4           1             4    7     1      -0.4613765001E-04       4    7    1        -0.2509382040E-02      0.3501122322E-02

    ------------------------------------------------
       NWT REQUIRED            4 OUTER ITERATIONS 
       AND A TOTAL OF          7 INNER ITERATIONS.
    ------------------------------------------------

 NO OUTPUT CONTROL FOR STRESS PERIOD   23   TIME STEP    5
 
 SOLVING FOR HEAD 
                                                   Max.-Head-Change                         Max.-Flux-Residual
  Residual-Control   Outer-Iter.   Inner-Iter.     Column Row Layer    Maximum-Head-Change  Column Row Layer    Maximum-Flux-Residual          L2-NORM 
          0                 1           2             4    6     1      -0.1693064974E-01       4    6    1        -0.9159251764E+00      0.1211518750E+01
          0                 2           2             4    6     1       0.1606501046E-02       4    6    1         0.9159138320E-01      0.1427458093E+00
          0                 3           2             4    7     1      -0.2240863535E-03       4    7    1        -0.1207964912E-01      0.1856665327E-01
          0                 4           1             4    7     1      -0.4538424452E-04       4    7    1        -0.2467488208E-02      0.3406809583E-02

    ------------------------------------------------
       NWT REQUIRED            4 OUTER ITERATIONS 
       AND A TOTAL OF          7 INNER ITERATIONS.
    ------------------------------------------------

 NO OUTPUT CONTROL FOR STRESS PERIOD   23   TIME STEP    6
 
 SOLVING FOR HEAD 
                                                   Max.-Head-Change                         Max.-Flux-Residual
  Residual-Control   Outer-Iter.   Inner-Iter.     Column Row Layer    Maximum-Head-Change  Column Row Layer    Maximum-Flux-Residual          L2-NORM 
          0                 1           2             4    6     1      -0.1631582484E-01       4    6    1        -0.8823952081E+00      0.1175641427E+01
          0                 2           2             4    6     1       0.1547488288E-02       4    6    1         0.8823846912E-01      0.1386122416E+00
          0                 3           2             4    7     1      -0.2202159326E-03       4    7    1        -0.1186850932E-01      0.1805817033E-01
          0                 4           1             4    7     1      -0.4462432388E-04       4    7    1        -0.2425221618E-02      0.3318663126E-02

    ------------------------------------------------
       NWT REQUIRED            4 OUTER ITERATIONS 
       AND A TOTAL OF          7 INNER ITERATIONS.
    ------------------------------------------------

 NO OUTPUT CONTROL FOR STRESS PERIOD   23   TIME STEP    7
 
 SOLVING FOR HEAD 
                                                   Max.-Head-Change                         Max.-Flux-Residual
  Residual-Control   Outer-Iter.   Inner-Iter.     Column Row Layer    Maximum-Head-Change  Column Row Layer    Maximum-Flux-Residual          L2-NORM 
          0                 1           2             4    6     1      -0.1572903538E-01       4    6    1        -0.8504051262E+00      0.1141822776E+01
          0                 2           2             4    6     1       0.1491197009E-02       4    6    1         0.8503953700E-01      0.1347153739E+00
          0                 3           2             4    7     1      -0.2163453847E-03       4    7    1        -0.1165738695E-01      0.1758060455E-01
          0                 4           1             4    7     1      -0.4386332527E-04       4    7    1        -0.2382942333E-02      0.3235835300E-02

    ------------------------------------------------
       NWT REQUIRED            4 OUTER ITERATIONS 
       AND A TOTAL OF          7 INNER ITERATIONS.
    ------------------------------------------------

 NO OUTPUT CONTROL FOR STRESS PERIOD   23   TIME STEP    8
 
 SOLVING FOR HEAD 
                                                   Max.-Head-Change                         Max.-Flux-Residual
  Residual-Control   Outer-Iter.   Inner-Iter.     Column Row Layer    Maximum-Head-Change  Column Row Layer    Maximum-Flux-Residual          L2-NORM 
          0                 1           2             4    6     1      -0.1516871917E-01       4    6    1        -0.8198690262E+00      0.1109903156E+01
          0                 2           2             4    6     1       0.1437473709E-02       4    6    1         0.8198599702E-01      0.1310360506E+00
          0                 3           2             4    7     1      -0.2124841134E-03       4    7    1        -0.1144682510E-01      0.1713058719E-01
          0                 4           1             4    7     1      -0.4310302521E-04       4    7    1        -0.2340750880E-02      0.3157860331E-02

    ------------------------------------------------
       NWT REQUIRED            4 OUTER ITERATIONS 
       AND A TOTAL OF          7 INNER ITERATIONS.
    ------------------------------------------------

 NO OUTPUT CONTROL FOR STRESS PERIOD   23   TIME STEP    9
 
 SOLVING FOR HEAD 
                                                   Max.-Head-Change                         Max.-Flux-Residual
  Residual-Control   Outer-Iter.   Inner-Iter.     Column Row Layer    Maximum-Head-Change  Column Row Layer    Maximum-Flux-Residual          L2-NORM 
          0                 1           2             4    6     1      -0.1463315171E-01       4    6    1        -0.7906911332E+00      0.1079725035E+01
          0                 2           2             4    6     1       0.1386149416E-02       4    6    1         0.7906827222E-01      0.1275555104E+00
          0                 3           2             4    7     1      -0.2086401575E-03       4    7    1        -0.1123727993E-01      0.1670573583E-01
          0                 4           1             4    7     1      -0.4234500842E-04       4    7    1        -0.2298734263E-02      0.3084200057E-02

    ------------------------------------------------
       NWT REQUIRED            4 OUTER ITERATIONS 
       AND A TOTAL OF          7 INNER ITERATIONS.
    ------------------------------------------------

 NO OUTPUT CONTROL FOR STRESS PERIOD   23   TIME STEP   10
 
 SOLVING FOR HEAD 
                                                   Max.-Head-Change                         Max.-Flux-Residual
  Residual-Control   Outer-Iter.   Inner-Iter.     Column Row Layer    Maximum-Head-Change  Column Row Layer    Maximum-Flux-Residual          L2-NORM 
          0                 1           2             4    6     1      -0.1412124748E-01       4    6    1        -0.7628118663E+00      0.1051162423E+01
          0                 2           2             4    6     1       0.1337136196E-02       4    6    1         0.7628040495E-01      0.1242544290E+00
          0                 3           2             4    7     1      -0.2042037776E-03       4    7    1        -0.1100772114E-01      0.1629308339E-01
          0                 4           1             4    7     1      -0.4140117038E-04       4    7    1        -0.2248979851E-02      0.3010377097E-02

    ------------------------------------------------
       NWT REQUIRED            4 OUTER ITERATIONS 
       AND A TOTAL OF          7 INNER ITERATIONS.
    ------------------------------------------------

 NO OUTPUT CONTROL FOR STRESS PERIOD   23   TIME STEP   11
 
 SOLVING FOR HEAD 
                                                   Max.-Head-Change                         Max.-Flux-Residual
  Residual-Control   Outer-Iter.   Inner-Iter.     Column Row Layer    Maximum-Head-Change  Column Row Layer    Maximum-Flux-Residual          L2-NORM 
          0                 1           2             4    6     1      -0.1363186113E-01       4    6    1        -0.7361732754E+00      0.1024099715E+01
          0                 2           2             4    6     1       0.1290316788E-02       4    6    1         0.7361660048E-01      0.1210965999E+00
          0                 3           2             4    7     1      -0.2000788602E-03       4    7    1        -0.1078224587E-01      0.1590281176E-01
          0                 4           1             4    7     1      -0.4058835751E-04       4    7    1        -0.2203926153E-02      0.2942419373E-02

    ------------------------------------------------
       NWT REQUIRED            4 OUTER ITERATIONS 
       AND A TOTAL OF          7 INNER ITERATIONS.
    ------------------------------------------------

 NO OUTPUT CONTROL FOR STRESS PERIOD   23   TIME STEP   12
 
 SOLVING FOR HEAD 
                                                   Max.-Head-Change                         Max.-Flux-Residual
  Residual-Control   Outer-Iter.   Inner-Iter.     Column Row Layer    Maximum-Head-Change  Column Row Layer    Maximum-Flux-Residual          L2-NORM 
          0                 1           2             4    6     1      -0.1316350379E-01       4    6    1        -0.7106876093E+00      0.9983614952E+00
          0                 2           2             4    6     1       0.1245525075E-02       4    6    1         0.7106808427E-01      0.1181026124E+00
          0                 3           2             4    7     1      -0.1960884813E-03       4    7    1        -0.1056438618E-01      0.1553372294E-01
          0                 4           1             4    7     1      -0.3980093366E-04       4    7    1        -0.2160329853E-02      0.2878117452E-02

    ------------------------------------------------
       NWT REQUIRED            4 OUTER ITERATIONS 
       AND A TOTAL OF          7 INNER ITERATIONS.
    ------------------------------------------------

 NO OUTPUT CONTROL FOR STRESS PERIOD   23   TIME STEP   13
 
 SOLVING FOR HEAD 
                                                   Max.-Head-Change                         Max.-Flux-Residual
  Residual-Control   Outer-Iter.   Inner-Iter.     Column Row Layer    Maximum-Head-Change  Column Row Layer    Maximum-Flux-Residual          L2-NORM 
          0                 1           2             4    6     1      -0.1271507993E-01       4    6    1        -0.6862934846E+00      0.9739271381E+00
          0                 2           2             4    6     1       0.1202655713E-02       4    6    1         0.6862871841E-01      0.1152577194E+00
          0                 3           2             4    7     1      -0.1921707930E-03       4    7    1        -0.1035049724E-01      0.1518288598E-01
          0                 4           1             4    7     1      -0.3902679521E-04       4    7    1        -0.2117510371E-02      0.2816921327E-02

    ------------------------------------------------
       NWT REQUIRED            4 OUTER ITERATIONS 
       AND A TOTAL OF          7 INNER ITERATIONS.
    ------------------------------------------------

 NO OUTPUT CONTROL FOR STRESS PERIOD   23   TIME STEP   14
 
 SOLVING FOR HEAD 
                                                   Max.-Head-Change                         Max.-Flux-Residual
  Residual-Control   Outer-Iter.   Inner-Iter.     Column Row Layer    Maximum-Head-Change  Column Row Layer    Maximum-Flux-Residual          L2-NORM 
          0                 1           2             4    6     1      -0.1228581555E-01       4    6    1        -0.6629488596E+00      0.9507023398E+00
          0                 2           2             4    6     1       0.1161634772E-02       4    6    1         0.6629429895E-01      0.1125498897E+00
          0                 3           2             4    7     1      -0.1883268354E-03       4    7    1        -0.1014074404E-01      0.1484830045E-01
          0                 4           1             4    7     1      -0.3826627256E-04       4    7    1        -0.2075482262E-02      0.2758455162E-02

    ------------------------------------------------
       NWT REQUIRED            4 OUTER ITERATIONS 
       AND A TOTAL OF          7 INNER ITERATIONS.
    ------------------------------------------------

 NO OUTPUT CONTROL FOR STRESS PERIOD   23   TIME STEP   15
 
 SOLVING FOR HEAD 
                                                   Max.-Head-Change                         Max.-Flux-Residual
  Residual-Control   Outer-Iter.   Inner-Iter.     Column Row Layer    Maximum-Head-Change  Column Row Layer    Maximum-Flux-Residual          L2-NORM 
          0                 1           2             4    6     1      -0.1187471217E-01       4    6    1        -0.6405986396E+00      0.9286098254E+00
          0                 2           2             4    6     1       0.1122365207E-02       4    6    1         0.6405931677E-01      0.1099694477E+00
          0                 3           2             4    7     1      -0.1845559064E-03       4    7    1        -0.9935100135E-02      0.1452865116E-01
          0                 4           1             4    7     1      -0.3751921213E-04       4    7    1        -0.2034195445E-02      0.2702461313E-02

    ------------------------------------------------
       NWT REQUIRED            4 OUTER ITERATIONS 
       AND A TOTAL OF          7 INNER ITERATIONS.
    ------------------------------------------------

 NO OUTPUT CONTROL FOR STRESS PERIOD   23   TIME STEP   16
 
 SOLVING FOR HEAD 
                                                   Max.-Head-Change                         Max.-Flux-Residual
  Residual-Control   Outer-Iter.   Inner-Iter.     Column Row Layer    Maximum-Head-Change  Column Row Layer    Maximum-Flux-Residual          L2-NORM 
          0                 1           2             4    6     1      -0.1148083278E-01       4    6    1        -0.6191910492E+00      0.9075662608E+00
          0                 2           2             4    6     1       0.1084756094E-02       4    6    1         0.6191859461E-01      0.1075091714E+00
          0                 3           2             4    7     1      -0.1808572023E-03       4    7    1        -0.9733540871E-02      0.1422242842E-01
          0                 4           1             4    7     1      -0.3678549463E-04       4    7    1        -0.1993719255E-02      0.2648571795E-02

    ------------------------------------------------
       NWT REQUIRED            4 OUTER ITERATIONS 
       AND A TOTAL OF          7 INNER ITERATIONS.
    ------------------------------------------------

 NO OUTPUT CONTROL FOR STRESS PERIOD   23   TIME STEP   17
 
 SOLVING FOR HEAD 
                                                   Max.-Head-Change                         Max.-Flux-Residual
  Residual-Control   Outer-Iter.   Inner-Iter.     Column Row Layer    Maximum-Head-Change  Column Row Layer    Maximum-Flux-Residual          L2-NORM 
          0                 1           2             4    6     1      -0.1110302150E-01       4    6    1        -0.5986626177E+00      0.8874871069E+00
          0                 2           2             4    6     1       0.1048693876E-02       4    6    1         0.5986578561E-01      0.1051511209E+00
          0                 3           2             4    7     1      -0.1772314500E-03       4    7    1        -0.9536054273E-02      0.1392873170E-01
          0                 4           1             4    7     1      -0.3606544019E-04       4    7    1        -0.1954029049E-02      0.2596843124E-02

    ------------------------------------------------
       NWT REQUIRED            4 OUTER ITERATIONS 
       AND A TOTAL OF          7 INNER ITERATIONS.
    ------------------------------------------------

 NO OUTPUT CONTROL FOR STRESS PERIOD   23   TIME STEP   18
 
 SOLVING FOR HEAD 
                                                   Max.-Head-Change                         Max.-Flux-Residual
  Residual-Control   Outer-Iter.   Inner-Iter.     Column Row Layer    Maximum-Head-Change  Column Row Layer    Maximum-Flux-Residual          L2-NORM 
          0                 1           2             4    6     1      -0.1074099470E-01       4    6    1        -0.5789981072E+00      0.8683279537E+00
          0                 2           2             4    6     1       0.1014153796E-02       4    6    1         0.5789936619E-01      0.1028970694E+00
          0                 3           2             4    7     1      -0.1736763999E-03       4    7    1        -0.9342536595E-02      0.1364585493E-01
          0                 4           1             4    7     1      -0.3535850583E-04       4    7    1        -0.1915098380E-02      0.2546771829E-02

    ------------------------------------------------
       NWT REQUIRED            4 OUTER ITERATIONS 
       AND A TOTAL OF          7 INNER ITERATIONS.
    ------------------------------------------------

 NO OUTPUT CONTROL FOR STRESS PERIOD   23   TIME STEP   19
 
 SOLVING FOR HEAD 
                                                   Max.-Head-Change                         Max.-Flux-Residual
  Residual-Control   Outer-Iter.   Inner-Iter.     Column Row Layer    Maximum-Head-Change  Column Row Layer    Maximum-Flux-Residual          L2-NORM 
          0                 1           2             4    6     1      -0.1039395334E-01       4    6    1        -0.5601528781E+00      0.8500401725E+00
          0                 2           2             4    6     1       0.9810557417E-03       4    6    1         0.5601487259E-01      0.1007407485E+00
          0                 3           2             4    7     1      -0.1701920022E-03       4    7    1        -0.9152964992E-02      0.1337439162E-01
          0                 4           1             4    7     1      -0.3466482485E-04       4    7    1        -0.1876929032E-02      0.2498454652E-02

    ------------------------------------------------
       NWT REQUIRED            4 OUTER ITERATIONS 
       AND A TOTAL OF          7 INNER ITERATIONS.
    ------------------------------------------------

 NO OUTPUT CONTROL FOR STRESS PERIOD   23   TIME STEP   20
 
 SOLVING FOR HEAD 
                                                   Max.-Head-Change                         Max.-Flux-Residual
  Residual-Control   Outer-Iter.   Inner-Iter.     Column Row Layer    Maximum-Head-Change  Column Row Layer    Maximum-Flux-Residual          L2-NORM 
          0                 1           2             4    6     1      -0.1006059763E-01       4    6    1        -0.5420559171E+00      0.8325339995E+00
          0                 2           2             4    6     1       0.9492736713E-03       4    6    1         0.5420520369E-01      0.9866928326E-01
          0                 3           2             4    7     1      -0.1667767729E-03       4    7    1        -0.8967259788E-02      0.1311133214E-01
          0                 4           1             4    7     1      -0.3398411739E-04       4    7    1        -0.1839504830E-02      0.2451640974E-02

    ------------------------------------------------
       NWT REQUIRED            4 OUTER ITERATIONS 
       AND A TOTAL OF          7 INNER ITERATIONS.
    ------------------------------------------------

 NO OUTPUT CONTROL FOR STRESS PERIOD   23   TIME STEP   21
 
 SOLVING FOR HEAD 
                                                   Max.-Head-Change                         Max.-Flux-Residual
  Residual-Control   Outer-Iter.   Inner-Iter.     Column Row Layer    Maximum-Head-Change  Column Row Layer    Maximum-Flux-Residual          L2-NORM 
          0                 1           2             4    6     1      -0.9741052101E-02       4    6    1        -0.5247141626E+00      0.8157981515E+00
          0                 2           2             4    6     1       0.9188225031E-03       4    6    1         0.5247105346E-01      0.9668181367E-01
          0                 3           2             4    7     1      -0.1634301651E-03       4    7    1        -0.8785377434E-02      0.1285731687E-01
          0                 4           1             4    7     1      -0.3331636242E-04       4    7    1        -0.1802821307E-02      0.2406138994E-02

    ------------------------------------------------
       NWT REQUIRED            4 OUTER ITERATIONS 
       AND A TOTAL OF          7 INNER ITERATIONS.
    ------------------------------------------------

 NO OUTPUT CONTROL FOR STRESS PERIOD   23   TIME STEP   22
 
 SOLVING FOR HEAD 
                                                   Max.-Head-Change                         Max.-Flux-Residual
  Residual-Control   Outer-Iter.   Inner-Iter.     Column Row Layer    Maximum-Head-Change  Column Row Layer    Maximum-Flux-Residual          L2-NORM 
          0                 1           2             4    6     1      -0.9433816614E-02       4    6    1        -0.5080446600E+00      0.7997540229E+00
          0                 2           2             4    6     1       0.8894927296E-03       4    6    1         0.5080412663E-01      0.9484022419E-01
          0                 3           2             4    7     1      -0.1601629355E-03       4    7    1        -0.8607859709E-02      0.1263841128E-01
          0                 4           1             4    7     1      -0.3266411209E-04       4    7    1        -0.1767000533E-02      0.2369359050E-02

    ------------------------------------------------
       NWT REQUIRED            4 OUTER ITERATIONS 
       AND A TOTAL OF          7 INNER ITERATIONS.
    ------------------------------------------------

 NO OUTPUT CONTROL FOR STRESS PERIOD   23   TIME STEP   23
 
 SOLVING FOR HEAD 
                                                   Max.-Head-Change                         Max.-Flux-Residual
  Residual-Control   Outer-Iter.   Inner-Iter.     Column Row Layer    Maximum-Head-Change  Column Row Layer    Maximum-Flux-Residual          L2-NORM 
          0                 1           2             4    6     1      -0.9139295177E-02       4    6    1        -0.4920637583E+00      0.7844262399E+00
          0                 2           2             4    6     1       0.8614548198E-03       4    6    1         0.4920605834E-01      0.9297200491E-01
          0                 3           2             4    7     1      -0.1569596591E-03       4    7    1        -0.8433956662E-02      0.1239274615E-01
          0                 4           1             4    7     1      -0.3202353168E-04       4    7    1        -0.1731865867E-02      0.2324673449E-02

    ------------------------------------------------
       NWT REQUIRED            4 OUTER ITERATIONS 
       AND A TOTAL OF          7 INNER ITERATIONS.
    ------------------------------------------------

 NO OUTPUT CONTROL FOR STRESS PERIOD   23   TIME STEP   24
 
 SOLVING FOR HEAD 
                                                   Max.-Head-Change                         Max.-Flux-Residual
  Residual-Control   Outer-Iter.   Inner-Iter.     Column Row Layer    Maximum-Head-Change  Column Row Layer    Maximum-Flux-Residual          L2-NORM 
          0                 1           2             4    6     1      -0.8856164284E-02       4    6    1        -0.4767077027E+00      0.7697153932E+00
          0                 2           2             4    6     1       0.8344855126E-03       4    6    1         0.4767047309E-01      0.9121799826E-01
          0                 3           2             4    7     1      -0.1538107395E-03       4    7    1        -0.8263059567E-02      0.1216639356E-01
          0                 4           1             4    7     1      -0.3139334339E-04       4    7    1        -0.1697319574E-02      0.2283735303E-02

    ------------------------------------------------
       NWT REQUIRED            4 OUTER ITERATIONS 
       AND A TOTAL OF          7 INNER ITERATIONS.
    ------------------------------------------------

 NO OUTPUT CONTROL FOR STRESS PERIOD   23   TIME STEP   25
 
 SOLVING FOR HEAD 
                                                   Max.-Head-Change                         Max.-Flux-Residual
  Residual-Control   Outer-Iter.   Inner-Iter.     Column Row Layer    Maximum-Head-Change  Column Row Layer    Maximum-Flux-Residual          L2-NORM 
          0                 1           2             4    6     1      -0.8584164229E-02       4    6    1        -0.4619599741E+00      0.7555960262E+00
          0                 2           2             4    6     1       0.8085875462E-03       4    6    1         0.4619571904E-01      0.8952673819E-01
          0                 3           1             4    7     1      -0.1507358141E-03       4    7    1        -0.8096273975E-02      0.1194599557E-01
          0                 4           1             4    7     1      -0.3077729663E-04       4    7    1        -0.1663574135E-02      0.2243651347E-02

    ------------------------------------------------
       NWT REQUIRED            4 OUTER ITERATIONS 
       AND A TOTAL OF          6 INNER ITERATIONS.
    ------------------------------------------------

 NO OUTPUT CONTROL FOR STRESS PERIOD   23   TIME STEP   26
 
 SOLVING FOR HEAD 
                                                   Max.-Head-Change                         Max.-Flux-Residual
  Residual-Control   Outer-Iter.   Inner-Iter.     Column Row Layer    Maximum-Head-Change  Column Row Layer    Maximum-Flux-Residual          L2-NORM 
          0                 1           2             4    6     1      -0.8323018177E-02       4    6    1        -0.4478049883E+00      0.7420371453E+00
          0                 2           2             4    6     1       0.7837340354E-03       4    6    1         0.4478023798E-01      0.8789550976E-01
          0                 3           1             4    7     1      -0.1477340937E-03       4    7    1        -0.7933531313E-02      0.1173152596E-01
          0                 4           1             4    7     1      -0.3017537565E-04       4    7    1        -0.1630623530E-02      0.2204484897E-02

    ------------------------------------------------
       NWT REQUIRED            4 OUTER ITERATIONS 
       AND A TOTAL OF          6 INNER ITERATIONS.
    ------------------------------------------------

 NO OUTPUT CONTROL FOR STRESS PERIOD   23   TIME STEP   27
 
 SOLVING FOR HEAD 
                                                   Max.-Head-Change                         Max.-Flux-Residual
  Residual-Control   Outer-Iter.   Inner-Iter.     Column Row Layer    Maximum-Head-Change  Column Row Layer    Maximum-Flux-Residual          L2-NORM 
          0                 1           2             4    6     1      -0.8071643110E-02       4    6    1        -0.4341837822E+00      0.7289900192E+00
          0                 2           2             4    6     1       0.7577671761E-03       4    6    1         0.4341887750E-01      0.8630519602E-01
          0                 3           1             4    7     1      -0.1447572155E-03       4    7    1        -0.7773945583E-02      0.1153546389E-01
          0                 4           1             4    7     1      -0.2957816625E-04       4    7    1        -0.1597866455E-02      0.2175277569E-02

    ------------------------------------------------
       NWT REQUIRED            4 OUTER ITERATIONS 
       AND A TOTAL OF          6 INNER ITERATIONS.
    ------------------------------------------------

 NO OUTPUT CONTROL FOR STRESS PERIOD   23   TIME STEP   28
 
 SOLVING FOR HEAD 
                                                   Max.-Head-Change                         Max.-Flux-Residual
  Residual-Control   Outer-Iter.   Inner-Iter.     Column Row Layer    Maximum-Head-Change  Column Row Layer    Maximum-Flux-Residual          L2-NORM 
          0                 1           2             4    6     1      -0.7829831621E-02       4    6    1        -0.4210846924E+00      0.7164446917E+00
          0                 2           2             4    6     1       0.7418047236E-03       4    6    1         0.4250687583E-01      0.8512611509E-01
          0                 3           1             4    7     1      -0.1418884346E-03       4    7    1        -0.7616299237E-02      0.1134738130E-01
          0                 4           1             4    7     1      -0.2900245640E-04       4    7    1        -0.1566451019E-02      0.2132458874E-02

    ------------------------------------------------
       NWT REQUIRED            4 OUTER ITERATIONS 
       AND A TOTAL OF          6 INNER ITERATIONS.
    ------------------------------------------------

 NO OUTPUT CONTROL FOR STRESS PERIOD   23   TIME STEP   29
 
 SOLVING FOR HEAD 
                                                   Max.-Head-Change                         Max.-Flux-Residual
  Residual-Control   Outer-Iter.   Inner-Iter.     Column Row Layer    Maximum-Head-Change  Column Row Layer    Maximum-Flux-Residual          L2-NORM 
          0                 1           2             4    6     1      -0.7584478884E-02       4    6    1        -0.4082483907E+00      0.7042799662E+00
          0                 2           2             4    6     1       0.7122818242E-03       4    6    1         0.4082467726E-01      0.8337230438E-01
          0                 3           1             4    7     1      -0.1390707841E-03       4    7    1        -0.7464196040E-02      0.1112129968E-01
          0                 4           1             4    7     1      -0.2843568602E-04       4    7    1        -0.1535476790E-02      0.2091190220E-02

    ------------------------------------------------
       NWT REQUIRED            4 OUTER ITERATIONS 
       AND A TOTAL OF          6 INNER ITERATIONS.
    ------------------------------------------------

 NO OUTPUT CONTROL FOR STRESS PERIOD   23   TIME STEP   30



 STREAM LISTING     PERIOD     23   STEP       30

 LAYER ROW COL. STREAM  RCH.  FLOW INTO     FLOW TO   FLOW OUT OF   OVRLND.     DIRECT     STREAM       STREAM     STREAM     STREAM   STREAMBED  STREAMBED
                SEG.NO.  NO.  STRM. RCH.    AQUIFER    STRM. RCH.    RUNOFF     PRECIP       ET          HEAD       DEPTH      WIDTH   CONDCTNC.   GRADIENT

   1    1    1     1     1    1.6500E+01  1.9759E-01   1.6303E+01  0.000E+00  0.000E+00  0.000E+00  1.09409E+03  1.039E+00  1.087E+01  4.893E-02  1.346E+00
   1    2    2     1     2    1.6303E+01  3.0466E-01   1.5998E+01  0.000E+00  0.000E+00  0.000E+00  1.08909E+03  1.034E+00  1.079E+01  7.552E-02  1.345E+00
   1    3    3     1     3    1.5998E+01  2.5853E-01   1.5739E+01  0.000E+00  0.000E+00  0.000E+00  1.08345E+03  1.029E+00  1.070E+01  6.417E-02  1.343E+00
   1    3    4     1     4    1.5739E+01  2.3700E-01   1.5502E+01  0.000E+00  0.000E+00  0.000E+00  1.07843E+03  1.024E+00  1.061E+01  5.890E-02  1.341E+00
   1    4    5     2     1    1.3502E+01  2.9865E-01   1.3204E+01  0.000E+00  0.000E+00  0.000E+00  1.07276E+03  8.289E-01  1.200E+01  7.800E-02  1.276E+00
   1    5    6     2     2    1.3204E+01  2.2914E-01   1.2975E+01  0.000E+00  0.000E+00  0.000E+00  1.06733E+03  8.190E-01  1.200E+01  6.000E-02  1.273E+00
   1    6    6     2     3    1.2975E+01  2.2862E-01   1.2746E+01  0.000E+00  0.000E+00  0.000E+00  1.06260E+03  8.104E-01  1.200E+01  6.000E-02  1.270E+00
   1    7    6     2     4    1.2746E+01  2.2810E-01   1.2518E+01  0.000E+00  0.000E+00  0.000E+00  1.05788E+03  8.017E-01  1.200E+01  6.000E-02  1.267E+00
   1    8    6     2     5    1.2518E+01  2.2758E-01   1.2290E+01  0.000E+00  0.000E+00  0.000E+00  1.05315E+03  7.930E-01  1.200E+01  6.000E-02  1.264E+00
   1    3    5     3     1    2.0000E+00  2.8252E-01   1.7175E+00  0.000E+00  0.000E+00  0.000E+00  1.07555E+03  1.909E+00  9.636E+00  7.227E-02  1.955E+00
   1    3    6     3     2    1.7175E+00  2.4905E-01   1.4684E+00  0.000E+00  0.000E+00  0.000E+00  1.07264E+03  1.727E+00  8.909E+00  6.682E-02  1.864E+00
   1    3    7     3     3    1.4684E+00  1.9718E-01   1.2712E+00  0.000E+00  0.000E+00  0.000E+00  1.06987E+03  1.555E+00  8.218E+00  5.547E-02  1.777E+00
   1    4    8     3     4    1.2712E+00  2.2567E-01   1.0456E+00  0.000E+00  0.000E+00  0.000E+00  1.06682E+03  1.364E+00  7.455E+00  6.709E-02  1.682E+00
   1    5    8     3     5    1.0456E+00  1.5790E-01   8.8768E-01  0.000E+00  0.000E+00  0.000E+00  1.06362E+03  1.164E+00  6.655E+00  4.991E-02  1.582E+00
   1    6    8     3     6    8.8768E-01  5.5980E-02   8.3170E-01  0.000E+00  0.000E+00  0.000E+00  1.06158E+03  1.036E+00  6.145E+00  1.844E-02  1.518E+00
   1    5   10     4     1    1.0000E+01  9.0919E-02   9.9091E+00  0.000E+00  0.000E+00  0.000E+00  1.07836E+03  6.368E-01  1.000E+01  2.500E-02  1.212E+00
   1    5    9     4     2    9.9091E+00  1.8158E-01   9.7275E+00  0.000E+00  0.000E+00  0.000E+00  1.07154E+03  6.315E-01  1.000E+01  5.000E-02  1.211E+00
   1    6    8     4     3    9.7275E+00  1.2689E-01   9.6006E+00  0.000E+00  0.000E+00  0.000E+00  1.06381E+03  6.256E-01  1.000E+01  3.500E-02  1.209E+00
   1    6    8     5     1    1.0432E+01  2.2686E-01   1.0205E+01  0.000E+00  0.000E+00  0.000E+00  1.05868E+03  6.790E-01  1.542E+01  6.166E-02  1.226E+00
   1    7    7     5     2    1.0205E+01  2.7894E-01   9.9265E+00  0.000E+00  0.000E+00  0.000E+00  1.05417E+03  6.732E-01  1.519E+01  7.594E-02  1.224E+00
   1    8    7     5     3    9.9265E+00  1.9221E-01   9.7343E+00  0.000E+00  0.000E+00  0.000E+00  1.04992E+03  6.676E-01  1.497E+01  5.241E-02  1.223E+00
   1    8    6     5     4    9.7343E+00  1.3577E-01   9.5985E+00  0.000E+00  0.000E+00  0.000E+00  1.04691E+03  6.637E-01  1.482E+01  3.706E-02  1.221E+00
   1    9    6     6     1    2.1889E+01  2.4742E-01   2.1641E+01  0.000E+00  0.000E+00  0.000E+00  1.04385E+03  1.124E+00  1.200E+01  6.000E-02  1.375E+00
   1   10    7     6     2    2.1641E+01  2.4696E-01   2.1395E+01  0.000E+00  0.000E+00  0.000E+00  1.03930E+03  1.116E+00  1.200E+01  6.000E-02  1.372E+00
   1   11    7     6     3    2.1395E+01  2.4650E-01   2.1148E+01  0.000E+00  0.000E+00  0.000E+00  1.03474E+03  1.108E+00  1.200E+01  6.000E-02  1.369E+00
   1   12    7     6     4    2.1148E+01  2.4603E-01   2.0902E+01  0.000E+00  0.000E+00  0.000E+00  1.03019E+03  1.101E+00  1.200E+01  6.000E-02  1.367E+00
   1   13    7     6     5    2.0902E+01  3.8480E-04   2.0902E+01  0.000E+00  0.000E+00  0.000E+00  1.02701E+03  1.097E+00  1.200E+01  2.400E-02  5.344E-03
   1   14    9     7     1    1.5000E+02  1.3450E+00   1.4865E+02  0.000E+00  0.000E+00  0.000E+00  1.03987E+03  2.288E+00  5.529E+01  5.593E-01  8.016E-01
   1   13    8     7     2    1.4865E+02  1.8636E+00   1.4679E+02  0.000E+00  0.000E+00  0.000E+00  1.03478E+03  2.279E+00  5.526E+01  6.148E-01  1.010E+00
   1   13    7     7     3    1.4679E+02  1.5077E+00   1.4528E+02  0.000E+00  0.000E+00  0.000E+00  1.02969E+03  2.270E+00  5.522E+01  5.584E-01  8.999E-01
   1   13    6     8     1    1.6619E+02  9.3035E-01   1.6526E+02  0.000E+00  0.000E+00  0.000E+00  1.02480E+03  2.924E+00  4.240E+01  4.321E-01  7.177E-01
   1   13    5     8     2    1.6526E+02  1.7820E-01   1.6508E+02  0.000E+00  0.000E+00  0.000E+00  1.01855E+03  2.920E+00  4.235E+01  4.315E-01  1.377E-01
   1   13    4     8     3    1.6508E+02 -2.4420E+00   1.6752E+02  0.000E+00  0.000E+00  0.000E+00  1.01230E+03  2.928E+00  4.245E+01  4.326E+00 -1.881E-01
   1   13    3     8     4    1.6752E+02 -3.6253E+00   1.7114E+02  0.000E+00  0.000E+00  0.000E+00  1.00607E+03  2.948E+00  4.274E+01  4.356E+00 -2.774E-01
   1   13    2     8     5    1.7114E+02 -2.5453E+00   1.7369E+02  0.000E+00  0.000E+00  0.000E+00  9.99843E+02  2.968E+00  4.303E+01  4.385E+00 -1.935E-01
   1   13    1     8     6    1.7369E+02 -1.9473E+00   1.7564E+02  0.000E+00  0.000E+00  0.000E+00  9.94857E+02  2.982E+00  4.324E+01  2.644E+00 -2.455E-01
   1    8    6     9     1    0.0000E+00  0.0000E+00   0.0000E+00  0.000E+00  0.000E+00  0.000E+00  1.07875E+03  0.000E+00  4.000E+00  0.000E+00  1.000E+00
   1    8    5     9     2    0.0000E+00  0.0000E+00   0.0000E+00  0.000E+00  0.000E+00  0.000E+00  1.07825E+03  0.000E+00  4.000E+00  0.000E+00  1.000E+00





UNSATURATED ZONE PACKAGE VOLUMETRIC BUDGET FOR  TIME STEP    30 STRESS PERIOD   23
  ------------------------------------------------------------------------------



     CUMULATIVE VOLUMES      L**3       RATES FOR THIS TIME STEP      L**3/T
     ------------------                 ------------------------

           IN:                                      IN:
           ---                                      ---
        INFILTRATION =  2821022830.9951          INFILTRATION =           0.8475

          OUT:                                     OUT:
          ----                                     ----
              UZF ET =   860617714.7548                UZF ET =           0.8475
        UZF RECHARGE =  1601949069.6919          UZF RECHARGE =           0.9556

            IN - OUT =   358456046.5484              IN - OUT =          -0.9556

          STORAGE:                                 STORAGE:
          --------                                 --------
      STORAGE CHANGE =   358452671.6345        STORAGE CHANGE =          -0.9556

 PERCENT DISCREPANCY IS DIFFERENCE BETWEEN IN-OUT MINUS CHANGE IN STORAGE
 DIVIDED BY THE AVERAGE OF IN AND OUT TIMES 100

 PERCENT DISCREPANCY =           0.00     PERCENT DISCREPANCY =           0.00






1
  VOLUMETRIC BUDGET FOR AGRICULTURAL FIELDS AT  END OF TIME STEP   30, STRESS PERIOD  23
  ------------------------------------------------------------------------------

     CUMULATIVE VOLUMES      L**3       RATES FOR THIS TIME STEP      L**3/T
     ------------------                 ------------------------

           IN:                                      IN:
           ---                                      ---
           AG WELLS      =  1742828032.0000             AG WELLS      =           0.0000
      DIVERSION SEGMENTS =  1029065024.0000        DIVERSION SEGMENTS =           0.0000
           GW IRRIGATION =           0.0000             GW IRRIGATION =           0.0000
           SW IRRIGATION =           0.0000             SW IRRIGATION =           0.0000
        SYSTEM LOSSES GW =           0.0000          SYSTEM LOSSES GW =           0.0000
        SYSTEM LOSSES SW =           0.0000          SYSTEM LOSSES SW =           0.0000

                TOTAL IN =  2771892992.0000                  TOTAL IN =           0.0000

          OUT:                                     OUT:
          ----                                     ----
           AG WELLS      =           0.0000             AG WELLS      =           0.0000
      DIVERSION SEGMENTS =           0.0000        DIVERSION SEGMENTS =           0.0000
           GW IRRIGATION =  1742828032.0000             GW IRRIGATION =           0.0000
           SW IRRIGATION =  1029085184.0000             SW IRRIGATION =           0.0000
        SYSTEM LOSSES GW =           0.0000          SYSTEM LOSSES GW =           0.0000
        SYSTEM LOSSES SW =           0.0000          SYSTEM LOSSES SW =           0.0000

               TOTAL OUT =  2771913216.0000                 TOTAL OUT =           0.0000

                IN - OUT =      -20224.0000                  IN - OUT =           0.0000

     PERCENT DISCREPANCY =          -0.00         PERCENT DISCREPANCY =           0.00



1
  VOLUMETRIC BUDGET FOR ENTIRE MODEL AT END OF TIME STEP   30, STRESS PERIOD  23
  ------------------------------------------------------------------------------

     CUMULATIVE VOLUMES      L**3       RATES FOR THIS TIME STEP      L**3/T
     ------------------                 ------------------------

           IN:                                      IN:
           ---                                      ---
             STORAGE     =  1763037440.0000               STORAGE     =           1.5710
       CONSTANT HEAD     =           0.0000         CONSTANT HEAD     =           0.0000
     HEAD DEP BOUNDS     =    16569495.0000       HEAD DEP BOUNDS     =           0.2864
      STREAM LEAKAGE     =   692906944.0000        STREAM LEAKAGE     =          11.4234
        UZF RECHARGE     =  1601948800.0000          UZF RECHARGE     =           0.9556
               GW ET     =           0.0000                 GW ET     =           0.0000
     SURFACE LEAKAGE     =           0.0000       SURFACE LEAKAGE     =           0.0000
           AG WELLS      =           0.0000             AG WELLS      =           0.0000

                TOTAL IN =  4074462720.0000                  TOTAL IN =          14.2364

          OUT:                                     OUT:
          ----                                     ----
             STORAGE     =  1690500992.0000               STORAGE     =           3.3889
       CONSTANT HEAD     =           0.0000         CONSTANT HEAD     =           0.0000
     HEAD DEP BOUNDS     =    16771765.0000       HEAD DEP BOUNDS     =           0.2886
      STREAM LEAKAGE     =   624278848.0000        STREAM LEAKAGE     =          10.5598
        UZF RECHARGE     =           0.0000          UZF RECHARGE     =           0.0000
               GW ET     =      106432.0312                 GW ET     =           0.0000
     SURFACE LEAKAGE     =           0.0000       SURFACE LEAKAGE     =           0.0000
           AG WELLS      =  1742828032.0000             AG WELLS      =           0.0000

               TOTAL OUT =  4074486016.0000                 TOTAL OUT =          14.2372

                IN - OUT =      -23296.0000                  IN - OUT =      -7.8106E-04

     PERCENT DISCREPANCY =          -0.00         PERCENT DISCREPANCY =          -0.01






         TIME SUMMARY AT END OF TIME STEP   30 IN STRESS PERIOD   23
                    SECONDS     MINUTES      HOURS       DAYS        YEARS
                    -----------------------------------------------------------
   TIME STEP LENGTH  87667.      1461.1      24.352      1.0147     2.77799E-03
 STRESS PERIOD TIME 2.63000E+06  43833.      730.56      30.440     8.33397E-02
         TOTAL TIME 5.79467E+07 9.65778E+05  16096.      670.68      1.8362    
1
1
                            STRESS PERIOD NO.   24, LENGTH =   2630000.    
                            -----------------------------------------------

                              NUMBER OF TIME STEPS =    30

                               MULTIPLIER FOR DELT =     1.000

                            INITIAL TIME STEP SIZE =   87666.66    

 REUSING NON-PARAMETER GHB CELLS FROM LAST STRESS PERIOD

      2 GHB CELLS

 REUSING STREAM SEGMENT DATA FROM LAST STRESS PERIOD



            AREAL INFILTRATION RATE
 READING ON UNIT   19 WITH FORMAT: (FREE)              

            1           2           3           4           5           6           7           8           9          10
 ........................................................................................................................
   1   1.0000E-10  2.0000E-10   0.000       0.000       0.000       0.000       0.000       0.000       0.000       0.000    
   2   2.0000E-10  1.0000E-10  2.0000E-10   0.000       0.000      8.0000E-10  8.0000E-10  5.0000E-10   0.000       0.000    
   3    0.000      5.0000E-10  1.0000E-10  1.0000E-10  8.0000E-10  8.0000E-10  5.0000E-10  5.0000E-10   0.000       0.000    
   4   8.0000E-10  5.0000E-10  1.0000E-10  1.0000E-10  1.0000E-10  1.0000E-10  1.0000E-10  1.0000E-10  2.0000E-10   0.000    
   5   8.0000E-10  5.0000E-10  1.0000E-10  1.0000E-10  1.0000E-10  1.0000E-10  1.0000E-10  1.0000E-10  1.0000E-10  1.0000E-10
   6   8.0000E-10  5.0000E-10  5.0000E-10  2.0000E-10  2.0000E-10  1.0000E-10  1.0000E-10  1.0000E-10  1.0000E-10  5.0000E-10
   7   8.0000E-10  5.0000E-10  5.0000E-10  2.0000E-10  2.0000E-10  1.0000E-10  1.0000E-10  2.0000E-10  2.0000E-10   0.000    
   8    0.000      5.0000E-10  5.0000E-10  2.0000E-10  2.0000E-10  1.0000E-10  1.0000E-10  2.0000E-10  5.0000E-10   0.000    
   9    0.000      5.0000E-10  5.0000E-10  2.0000E-10  2.0000E-10  1.0000E-10  1.0000E-10  2.0000E-10  5.0000E-10   0.000    
  10    0.000      5.0000E-10  5.0000E-10  2.0000E-10  2.0000E-10  1.0000E-10  1.0000E-10  2.0000E-10  5.0000E-10  8.0000E-10
  11    0.000      1.0000E-10  1.0000E-10  1.0000E-10  1.0000E-10  1.0000E-10  1.0000E-10  2.0000E-10  5.0000E-10   0.000    
  12   1.0000E-10  1.0000E-10  1.0000E-10  1.0000E-10  1.0000E-10  1.0000E-10  1.0000E-10  1.0000E-10  2.0000E-10   0.000    
  13   1.0000E-10  1.0000E-10  2.0000E-10  2.0000E-10  2.0000E-10  2.0000E-10  2.0000E-10  1.0000E-10  1.0000E-10   0.000    
  14    0.000      2.0000E-10  5.0000E-10  5.0000E-10  5.0000E-10  5.0000E-10  5.0000E-10  2.0000E-10  1.0000E-10   0.000    
  15    0.000       0.000      8.0000E-10  8.0000E-10  8.0000E-10  8.0000E-10   0.000       0.000       0.000       0.000    

                  ET RATE =  5.000000E-10

 USING ET EXTINCTION DEPTH FROM PREVIOUS STRESS PERIOD. CURRENT PERIOD IS:      24

 USING EXTINCTION WATER CONTENT FROM PREVIOUS STRESS PERIOD. CURRENT PERIOD IS:      24

 USING AIR ENTRY PRESSURE FROM PREVIOUS STRESS PERIOD. CURRENT PERIOD IS:      24

 USING ROOT PRESSURE HEAD FROM PREVIOUS STRESS PERIOD. CURRENT PERIOD IS:      24

 USING ROOT ACTIVITY FROM PREVIOUS STRESS PERIOD. CURRENT PERIOD IS:      24

 PROCESSING AG STRESS PERIOD DATA

 READING AG STRESS PERIOD DATA

 READING IRRIGATION SEGMENT

 READING IRRIGATION WELL

 READING SUPPLEMENTAL WELL

 END PROCESSING AG STRESS PERIOD DATA OPTIONS
 
 SOLVING FOR HEAD 
                                                   Max.-Head-Change                         Max.-Flux-Residual
  Residual-Control   Outer-Iter.   Inner-Iter.     Column Row Layer    Maximum-Head-Change  Column Row Layer    Maximum-Flux-Residual          L2-NORM 
          0                 1           2             4    6     1      -0.7354524728E-02       4    6    1        -0.3957758354E+00      0.6911382989E+00
          0                 2           2             4    6     1       0.6904189808E-03       4    6    1         0.3957743166E-01      0.8183345116E-01
          0                 3           1             4    7     1      -0.1362926439E-03       4    7    1        -0.7313861540E-02      0.1092749052E-01
          0                 4           1             4    7     1      -0.2787665707E-04       4    7    1        -0.1504948305E-02      0.2056141358E-02

    ------------------------------------------------
       NWT REQUIRED            4 OUTER ITERATIONS 
       AND A TOTAL OF          6 INNER ITERATIONS.
    ------------------------------------------------

 NO OUTPUT CONTROL FOR STRESS PERIOD   24   TIME STEP    1
 
 SOLVING FOR HEAD 
                                                   Max.-Head-Change                         Max.-Flux-Residual
  Residual-Control   Outer-Iter.   Inner-Iter.     Column Row Layer    Maximum-Head-Change  Column Row Layer    Maximum-Flux-Residual          L2-NORM 
          0                 1           2             4    6     1      -0.7133744214E-02       4    6    1        -0.3838045098E+00      0.6781351408E+00
          0                 2           2             4    6     1       0.6694384732E-03       4    6    1         0.3838030836E-01      0.8039062337E-01
          0                 3           1             4    7     1      -0.1335794476E-03       4    7    1        -0.7167082430E-02      0.1074004560E-01
          0                 4           1             4    7     1      -0.2733035502E-04       4    7    1        -0.1475128217E-02      0.2021771740E-02

    ------------------------------------------------
       NWT REQUIRED            4 OUTER ITERATIONS 
       AND A TOTAL OF          6 INNER ITERATIONS.
    ------------------------------------------------

 NO OUTPUT CONTROL FOR STRESS PERIOD   24   TIME STEP    2
 
 SOLVING FOR HEAD 
                                                   Max.-Head-Change                         Max.-Flux-Residual
  Residual-Control   Outer-Iter.   Inner-Iter.     Column Row Layer    Maximum-Head-Change  Column Row Layer    Maximum-Flux-Residual          L2-NORM 
          0                 1           2             4    6     1      -0.6921669240E-02       4    6    1        -0.3723094913E+00      0.6671849098E+00
          0                 2           2             4    6     1       0.6492985265E-03       4    6    1         0.3723081509E-01      0.7897834129E-01
          0                 3           1             4    7     1      -0.1309177198E-03       4    7    1        -0.7023144134E-02      0.1055528581E-01
          0                 4           1             4    7     1      -0.2679396113E-04       4    7    1        -0.1445866795E-02      0.1987776890E-02

    ------------------------------------------------
       NWT REQUIRED            4 OUTER ITERATIONS 
       AND A TOTAL OF          6 INNER ITERATIONS.
    ------------------------------------------------

 NO OUTPUT CONTROL FOR STRESS PERIOD   24   TIME STEP    3
 
 SOLVING FOR HEAD 
                                                   Max.-Head-Change                         Max.-Flux-Residual
  Residual-Control   Outer-Iter.   Inner-Iter.     Column Row Layer    Maximum-Head-Change  Column Row Layer    Maximum-Flux-Residual          L2-NORM 
          0                 1           2             4    6     1      -0.6717583336E-02       4    6    1        -0.3612513914E+00      0.6566703778E+00
          0                 2           2             4    6     1       0.6299278216E-03       4    6    1         0.3612501317E-01      0.7768199179E-01
          0                 3           1             4    7     1      -0.1283067504E-03       4    7    1        -0.6882003450E-02      0.1037645020E-01
          0                 4           1             4    7     1      -0.2626737584E-04       4    7    1        -0.1417156894E-02      0.1954232957E-02

    ------------------------------------------------
       NWT REQUIRED            4 OUTER ITERATIONS 
       AND A TOTAL OF          6 INNER ITERATIONS.
    ------------------------------------------------

 NO OUTPUT CONTROL FOR STRESS PERIOD   24   TIME STEP    4
 
 SOLVING FOR HEAD 
                                                   Max.-Head-Change                         Max.-Flux-Residual
  Residual-Control   Outer-Iter.   Inner-Iter.     Column Row Layer    Maximum-Head-Change  Column Row Layer    Maximum-Flux-Residual          L2-NORM 
          0                 1           2             4    6     1      -0.6521086680E-02       4    6    1        -0.3506080377E+00      0.6465062990E+00
          0                 2           2             4    7     1      -0.6145676431E-03       4    6    1         0.3506068531E-01      0.7642082018E-01
          0                 3           1             4    7     1      -0.1257452464E-03       4    7    1        -0.6743593207E-02      0.1020026835E-01
          0                 4           1             4    7     1      -0.2575034654E-04       4    7    1        -0.1388984195E-02      0.1921030862E-02

    ------------------------------------------------
       NWT REQUIRED            4 OUTER ITERATIONS 
       AND A TOTAL OF          6 INNER ITERATIONS.
    ------------------------------------------------

 NO OUTPUT CONTROL FOR STRESS PERIOD   24   TIME STEP    5
 
 SOLVING FOR HEAD 
                                                   Max.-Head-Change                         Max.-Flux-Residual
  Residual-Control   Outer-Iter.   Inner-Iter.     Column Row Layer    Maximum-Head-Change  Column Row Layer    Maximum-Flux-Residual          L2-NORM 
          0                 1           2             4    6     1      -0.6332076574E-02       4    6    1        -0.3403734776E+00      0.6366937766E+00
          0                 2           2             4    7     1      -0.6021736980E-03       4    6    1         0.3403723632E-01      0.7519741385E-01
          0                 3           1             4    7     1      -0.1232437853E-03       4    7    1        -0.6608479174E-02      0.1002773396E-01
          0                 4           1             4    7     1      -0.2524507746E-04       4    7    1        -0.1361465842E-02      0.1888436978E-02

    ------------------------------------------------
       NWT REQUIRED            4 OUTER ITERATIONS 
       AND A TOTAL OF          6 INNER ITERATIONS.
    ------------------------------------------------

 NO OUTPUT CONTROL FOR STRESS PERIOD   24   TIME STEP    6
 
 SOLVING FOR HEAD 
                                                   Max.-Head-Change                         Max.-Flux-Residual
  Residual-Control   Outer-Iter.   Inner-Iter.     Column Row Layer    Maximum-Head-Change  Column Row Layer    Maximum-Flux-Residual          L2-NORM 
          0                 1           2             4    6     1      -0.6149907157E-02       4    6    1        -0.3305128377E+00      0.6271956616E+00
          0                 2           2             4    7     1      -0.5900201166E-03       4    6    1         0.3305117890E-01      0.7400561187E-01
          0                 3           1             4    7     1      -0.1207888251E-03       4    7    1        -0.6475931919E-02      0.9857561787E-02
          0                 4           1             4    7     1      -0.2474877211E-04       4    7    1        -0.1334452462E-02      0.1855942059E-02

    ------------------------------------------------
       NWT REQUIRED            4 OUTER ITERATIONS 
       AND A TOTAL OF          6 INNER ITERATIONS.
    ------------------------------------------------

 NO OUTPUT CONTROL FOR STRESS PERIOD   24   TIME STEP    7
 
 SOLVING FOR HEAD 
                                                   Max.-Head-Change                         Max.-Flux-Residual
  Residual-Control   Outer-Iter.   Inner-Iter.     Column Row Layer    Maximum-Head-Change  Column Row Layer    Maximum-Flux-Residual          L2-NORM 
          0                 1           2             4    6     1      -0.5974522509E-02       4    6    1        -0.3210221848E+00      0.6180072606E+00
          0                 2           2             4    7     1      -0.5781601761E-03       4    6    1         0.3210211975E-01      0.7284804571E-01
          0                 3           1             4    7     1      -0.1183917288E-03       4    7    1        -0.6346550911E-02      0.9690922134E-02
          0                 4           1             4    7     1      -0.2426386583E-04       4    7    1        -0.1308070968E-02      0.1824111630E-02

    ------------------------------------------------
       NWT REQUIRED            4 OUTER ITERATIONS 
       AND A TOTAL OF          6 INNER ITERATIONS.
    ------------------------------------------------

 NO OUTPUT CONTROL FOR STRESS PERIOD   24   TIME STEP    8
 
 SOLVING FOR HEAD 
                                                   Max.-Head-Change                         Max.-Flux-Residual
  Residual-Control   Outer-Iter.   Inner-Iter.     Column Row Layer    Maximum-Head-Change  Column Row Layer    Maximum-Flux-Residual          L2-NORM 
          0                 1           2             4    6     1      -0.5805596049E-02       4    6    1        -0.3118839378E+00      0.6091186508E+00
          0                 2           2             4    7     1      -0.5665277168E-03       4    6    1         0.3118830079E-01      0.7172149955E-01
          0                 3           1             4    7     1      -0.1160387382E-03       4    7    1        -0.6219601479E-02      0.9526837306E-02
          0                 4           1             4    7     1      -0.2378749658E-04       4    7    1        -0.1282168715E-02      0.1792611497E-02

    ------------------------------------------------
       NWT REQUIRED            4 OUTER ITERATIONS 
       AND A TOTAL OF          6 INNER ITERATIONS.
    ------------------------------------------------

 NO OUTPUT CONTROL FOR STRESS PERIOD   24   TIME STEP    9
 
 SOLVING FOR HEAD 
                                                   Max.-Head-Change                         Max.-Flux-Residual
  Residual-Control   Outer-Iter.   Inner-Iter.     Column Row Layer    Maximum-Head-Change  Column Row Layer    Maximum-Flux-Residual          L2-NORM 
          0                 1           2             4    6     1      -0.5642544871E-02       4    6    1        -0.3030662060E+00      0.6005009819E+00
          0                 2           2             4    7     1      -0.5551750410E-03       4    7    1        -0.3037517328E-01      0.7062443975E-01
          0                 3           1             4    7     1      -0.1137409928E-03       4    7    1        -0.6095672580E-02      0.9365698906E-02
          0                 4           1             4    7     1      -0.2332203468E-04       4    7    1        -0.1256870085E-02      0.1761554755E-02

    ------------------------------------------------
       NWT REQUIRED            4 OUTER ITERATIONS 
       AND A TOTAL OF          6 INNER ITERATIONS.
    ------------------------------------------------

 NO OUTPUT CONTROL FOR STRESS PERIOD   24   TIME STEP   10
 
 SOLVING FOR HEAD 
                                                   Max.-Head-Change                         Max.-Flux-Residual
  Residual-Control   Outer-Iter.   Inner-Iter.     Column Row Layer    Maximum-Head-Change  Column Row Layer    Maximum-Flux-Residual          L2-NORM 
          0                 1           2             4    6     1      -0.5485357186E-02       4    6    1        -0.2945684853E+00      0.5921510677E+00
          0                 2           2             4    7     1      -0.5440343307E-03       4    7    1        -0.2975819524E-01      0.6955454470E-01
          0                 3           1             4    7     1      -0.1114842211E-03       4    7    1        -0.5974008886E-02      0.9206548414E-02
          0                 4           1             4    7     1      -0.2286447778E-04       4    7    1        -0.1232016172E-02      0.1730713728E-02

    ------------------------------------------------
       NWT REQUIRED            4 OUTER ITERATIONS 
       AND A TOTAL OF          6 INNER ITERATIONS.
    ------------------------------------------------

 NO OUTPUT CONTROL FOR STRESS PERIOD   24   TIME STEP   11
 
 SOLVING FOR HEAD 
                                                   Max.-Head-Change                         Max.-Flux-Residual
  Residual-Control   Outer-Iter.   Inner-Iter.     Column Row Layer    Maximum-Head-Change  Column Row Layer    Maximum-Flux-Residual          L2-NORM 
          0                 1           2             4    6     1      -0.5333757972E-02       4    6    1        -0.2863752123E+00      0.5840598844E+00
          0                 2           2             4    7     1      -0.5331060138E-03       4    7    1        -0.2915335028E-01      0.6851385777E-01
          0                 3           1             4    7     1      -0.1092694320E-03       4    7    1        -0.5854633192E-02      0.9050610597E-02
          0                 4           1             4    7     1      -0.2241521657E-04       4    7    1        -0.1207621356E-02      0.1700426586E-02

    ------------------------------------------------
       NWT REQUIRED            4 OUTER ITERATIONS 
       AND A TOTAL OF          6 INNER ITERATIONS.
    ------------------------------------------------

 NO OUTPUT CONTROL FOR STRESS PERIOD   24   TIME STEP   12
 
 SOLVING FOR HEAD 
                                                   Max.-Head-Change                         Max.-Flux-Residual
  Residual-Control   Outer-Iter.   Inner-Iter.     Column Row Layer    Maximum-Head-Change  Column Row Layer    Maximum-Flux-Residual          L2-NORM 
          0                 1           2             4    6     1      -0.5187483261E-02       4    6    1        -0.2784723241E+00      0.5762065040E+00
          0                 2           2             4    7     1      -0.5224366889E-03       4    7    1        -0.2856326185E-01      0.6749805285E-01
          0                 3           1             4    7     1      -0.1071054465E-03       4    7    1        -0.5738048107E-02      0.8896743786E-02
          0                 4           1             4    7     1      -0.2197591603E-04       4    7    1        -0.1183780376E-02      0.1670416998E-02

    ------------------------------------------------
       NWT REQUIRED            4 OUTER ITERATIONS 
       AND A TOTAL OF          6 INNER ITERATIONS.
    ------------------------------------------------

 NO OUTPUT CONTROL FOR STRESS PERIOD   24   TIME STEP   13
 
 SOLVING FOR HEAD 
                                                   Max.-Head-Change                         Max.-Flux-Residual
  Residual-Control   Outer-Iter.   Inner-Iter.     Column Row Layer    Maximum-Head-Change  Column Row Layer    Maximum-Flux-Residual          L2-NORM 
          0                 1           2             4    6     1      -0.5046287100E-02       4    6    1        -0.2708459119E+00      0.5685893777E+00
          0                 2           2             4    7     1      -0.5119675546E-03       4    7    1        -0.2798457287E-01      0.6650957845E-01
          0                 3           1             4    7     1      -0.1049811576E-03       4    7    1        -0.5623622807E-02      0.8746022456E-02
          0                 4           1             4    7     1      -0.2154448524E-04       4    7    1        -0.1160373887E-02      0.1640923049E-02

    ------------------------------------------------
       NWT REQUIRED            4 OUTER ITERATIONS 
       AND A TOTAL OF          6 INNER ITERATIONS.
    ------------------------------------------------

 NO OUTPUT CONTROL FOR STRESS PERIOD   24   TIME STEP   14
 
 SOLVING FOR HEAD 
                                                   Max.-Head-Change                         Max.-Flux-Residual
  Residual-Control   Outer-Iter.   Inner-Iter.     Column Row Layer    Maximum-Head-Change  Column Row Layer    Maximum-Flux-Residual          L2-NORM 
          0                 1           2             4    6     1      -0.4909936523E-02       4    6    1        -0.2634834339E+00      0.5611974881E+00
          0                 2           2             4    7     1      -0.5017473038E-03       4    7    1        -0.2741998110E-01      0.6554580748E-01
          0                 3           1             4    7     1      -0.1029060498E-03       4    7    1        -0.5511886850E-02      0.8597651015E-02
          0                 4           1             4    7     1      -0.2112277576E-04       4    7    1        -0.1137504862E-02      0.1611812297E-02

    ------------------------------------------------
       NWT REQUIRED            4 OUTER ITERATIONS 
       AND A TOTAL OF          6 INNER ITERATIONS.
    ------------------------------------------------

 NO OUTPUT CONTROL FOR STRESS PERIOD   24   TIME STEP   15
 
 SOLVING FOR HEAD 
                                                   Max.-Head-Change                         Max.-Flux-Residual
  Residual-Control   Outer-Iter.   Inner-Iter.     Column Row Layer    Maximum-Head-Change  Column Row Layer    Maximum-Flux-Residual          L2-NORM 
          0                 1           2             4    6     1      -0.4778202604E-02       4    6    1        -0.2563726834E+00      0.5540169481E+00
          0                 2           2             4    7     1      -0.4917120241E-03       4    7    1        -0.2686599663E-01      0.6460445668E-01
          0                 3           1             4    7     1      -0.1008671686E-03       4    7    1        -0.5402138895E-02      0.8451289364E-02
          0                 4           1             4    7     1      -0.2070815293E-04       4    7    1        -0.1115030640E-02      0.1582967880E-02

    ------------------------------------------------
       NWT REQUIRED            4 OUTER ITERATIONS 
       AND A TOTAL OF          6 INNER ITERATIONS.
    ------------------------------------------------

 NO OUTPUT CONTROL FOR STRESS PERIOD   24   TIME STEP   16
 
 SOLVING FOR HEAD 
                                                   Max.-Head-Change                         Max.-Flux-Residual
  Residual-Control   Outer-Iter.   Inner-Iter.     Column Row Layer    Maximum-Head-Change  Column Row Layer    Maximum-Flux-Residual          L2-NORM 
          0                 1           2             4    6     1      -0.4650600844E-02       4    6    1        -0.2494868437E+00      0.5470257785E+00
          0                 2           2             4    7     1      -0.4818558335E-03       4    7    1        -0.2632225360E-01      0.6368429806E-01
          0                 3           1             4    7     1      -0.9886339724E-04       4    7    1        -0.5294317755E-02      0.8307026877E-02

    ------------------------------------------------
       NWT REQUIRED            3 OUTER ITERATIONS 
       AND A TOTAL OF          5 INNER ITERATIONS.
    ------------------------------------------------

 NO OUTPUT CONTROL FOR STRESS PERIOD   24   TIME STEP   17
 
 SOLVING FOR HEAD 
                                                   Max.-Head-Change                         Max.-Flux-Residual
  Residual-Control   Outer-Iter.   Inner-Iter.     Column Row Layer    Maximum-Head-Change  Column Row Layer    Maximum-Flux-Residual          L2-NORM 
          0                 1           2             4    6     1      -0.4526930066E-02       4    6    1        -0.2428131212E+00      0.5402367681E+00
          0                 2           2             4    7     1      -0.4723979274E-03       4    7    1        -0.2580052441E-01      0.6279367593E-01
          0                 3           1             4    7     1      -0.9693973668E-04       4    7    1        -0.5190846131E-02      0.8167888091E-02

    ------------------------------------------------
       NWT REQUIRED            3 OUTER ITERATIONS 
       AND A TOTAL OF          5 INNER ITERATIONS.
    ------------------------------------------------

 NO OUTPUT CONTROL FOR STRESS PERIOD   24   TIME STEP   18
 
 SOLVING FOR HEAD 
                                                   Max.-Head-Change                         Max.-Flux-Residual
  Residual-Control   Outer-Iter.   Inner-Iter.     Column Row Layer    Maximum-Head-Change  Column Row Layer    Maximum-Flux-Residual          L2-NORM 
          0                 1           2             4    6     1      -0.4167782692E-02       4    6    1        -0.2232811673E+00      0.5279756195E+00
          0                 2           2             4    7     1      -0.4658751337E-03       4    7    1        -0.2523458152E-01      0.5793274866E-01
          0                 3           1             4    7     1      -0.9560570040E-04       4    7    1        -0.5133873235E-02      0.7934262328E-02

    ------------------------------------------------
       NWT REQUIRED            3 OUTER ITERATIONS 
       AND A TOTAL OF          5 INNER ITERATIONS.
    ------------------------------------------------

 NO OUTPUT CONTROL FOR STRESS PERIOD   24   TIME STEP   19
 
 SOLVING FOR HEAD 
                                                   Max.-Head-Change                         Max.-Flux-Residual
  Residual-Control   Outer-Iter.   Inner-Iter.     Column Row Layer    Maximum-Head-Change  Column Row Layer    Maximum-Flux-Residual          L2-NORM 
          0                 1           2             6    4     1       0.2527407561E-02       6    4    1         0.1327506912E+00      0.4780626176E+00
          0                 2           2             4    7     1      -0.4500903384E-03       4    7    1        -0.2405789735E-01      0.5753238857E-01
          0                 3           1             4    7     1      -0.9348197601E-04       4    7    1        -0.4988520039E-02      0.8217361430E-02

    ------------------------------------------------
       NWT REQUIRED            3 OUTER ITERATIONS 
       AND A TOTAL OF          5 INNER ITERATIONS.
    ------------------------------------------------

 NO OUTPUT CONTROL FOR STRESS PERIOD   24   TIME STEP   20
 
 SOLVING FOR HEAD 
                                                   Max.-Head-Change                         Max.-Flux-Residual
  Residual-Control   Outer-Iter.   Inner-Iter.     Column Row Layer    Maximum-Head-Change  Column Row Layer    Maximum-Flux-Residual          L2-NORM 
          0                 1           2             6    4     1       0.2499301268E-02       6    4    1         0.1312737278E+00      0.4692067202E+00
          0                 2           2             4    7     1      -0.4274132490E-03       4    7    1        -0.2297488369E-01      0.5492999905E-01
          0                 3           1             4    7     1      -0.8806506729E-04       4    7    1        -0.4724299079E-02      0.7430180378E-02

    ------------------------------------------------
       NWT REQUIRED            3 OUTER ITERATIONS 
       AND A TOTAL OF          5 INNER ITERATIONS.
    ------------------------------------------------

 NO OUTPUT CONTROL FOR STRESS PERIOD   24   TIME STEP   21
 
 SOLVING FOR HEAD 
                                                   Max.-Head-Change                         Max.-Flux-Residual
  Residual-Control   Outer-Iter.   Inner-Iter.     Column Row Layer    Maximum-Head-Change  Column Row Layer    Maximum-Flux-Residual          L2-NORM 
          0                 1           2             6    4     1       0.2471569006E-02       6    4    1         0.1298164592E+00      0.4637672579E+00
          0                 2           2             4    7     1      -0.4095614302E-03       4    7    1        -0.2199487321E-01      0.5392970473E-01
          0                 3           1             4    7     1      -0.8450316063E-04       4    7    1        -0.4529043400E-02      0.7203883451E-02

    ------------------------------------------------
       NWT REQUIRED            3 OUTER ITERATIONS 
       AND A TOTAL OF          5 INNER ITERATIONS.
    ------------------------------------------------

 NO OUTPUT CONTROL FOR STRESS PERIOD   24   TIME STEP   22
 
 SOLVING FOR HEAD 
                                                   Max.-Head-Change                         Max.-Flux-Residual
  Residual-Control   Outer-Iter.   Inner-Iter.     Column Row Layer    Maximum-Head-Change  Column Row Layer    Maximum-Flux-Residual          L2-NORM 
          0                 1           2             6    4     1       0.2443986367E-02       6    4    1         0.1283664666E+00      0.4586605941E+00
          0                 2           2             4    7     1      -0.3929141147E-03       4    7    1        -0.2108237218E-01      0.5300548426E-01
          0                 3           1             4    7     1      -0.8117377697E-04       4    7    1        -0.4346822251E-02      0.6994851758E-02

    ------------------------------------------------
       NWT REQUIRED            3 OUTER ITERATIONS 
       AND A TOTAL OF          5 INNER ITERATIONS.
    ------------------------------------------------

 NO OUTPUT CONTROL FOR STRESS PERIOD   24   TIME STEP   23
 
 SOLVING FOR HEAD 
                                                   Max.-Head-Change                         Max.-Flux-Residual
  Residual-Control   Outer-Iter.   Inner-Iter.     Column Row Layer    Maximum-Head-Change  Column Row Layer    Maximum-Flux-Residual          L2-NORM 
          0                 1           2             6    4     1       0.2417012161E-02       6    4    1         0.1269484559E+00      0.4538456072E+00
          0                 2           2             4    7     1      -0.3773982568E-03       4    7    1        -0.2023328431E-01      0.5214787509E-01
          0                 3           1             4    7     1      -0.7806288981E-04       4    7    1        -0.4176845749E-02      0.6801111675E-02

    ------------------------------------------------
       NWT REQUIRED            3 OUTER ITERATIONS 
       AND A TOTAL OF          5 INNER ITERATIONS.
    ------------------------------------------------

 NO OUTPUT CONTROL FOR STRESS PERIOD   24   TIME STEP   24
 
 SOLVING FOR HEAD 
                                                   Max.-Head-Change                         Max.-Flux-Residual
  Residual-Control   Outer-Iter.   Inner-Iter.     Column Row Layer    Maximum-Head-Change  Column Row Layer    Maximum-Flux-Residual          L2-NORM 
          0                 1           2             6    4     1       0.2390186479E-02       6    4    1         0.1255377660E+00      0.4492753143E+00
          0                 2           2             4    7     1      -0.3629611643E-03       4    7    1        -0.1944435478E-01      0.5134801965E-01
          0                 3           1             4    7     1      -0.7516198337E-04       4    7    1        -0.4018573956E-02      0.6621070022E-02

    ------------------------------------------------
       NWT REQUIRED            3 OUTER ITERATIONS 
       AND A TOTAL OF          5 INNER ITERATIONS.
    ------------------------------------------------

 NO OUTPUT CONTROL FOR STRESS PERIOD   24   TIME STEP   25
 
 SOLVING FOR HEAD 
                                                   Max.-Head-Change                         Max.-Flux-Residual
  Residual-Control   Outer-Iter.   Inner-Iter.     Column Row Layer    Maximum-Head-Change  Column Row Layer    Maximum-Flux-Residual          L2-NORM 
          0                 1           2             6    4     1       0.2363523773E-02       6    4    1         0.1241347761E+00      0.4449385821E+00
          0                 2           2             4    7     1      -0.3494418858E-03       4    7    1        -0.1870673167E-01      0.5059818253E-01
          0                 3           1             4    7     1      -0.7243909673E-04       4    7    1        -0.3870248460E-02      0.6452244572E-02

    ------------------------------------------------
       NWT REQUIRED            3 OUTER ITERATIONS 
       AND A TOTAL OF          5 INNER ITERATIONS.
    ------------------------------------------------

 NO OUTPUT CONTROL FOR STRESS PERIOD   24   TIME STEP   26
 
 SOLVING FOR HEAD 
                                                   Max.-Head-Change                         Max.-Flux-Residual
  Residual-Control   Outer-Iter.   Inner-Iter.     Column Row Layer    Maximum-Head-Change  Column Row Layer    Maximum-Flux-Residual          L2-NORM 
          0                 1           2             6    4     1       0.2337475808E-02       6    4    1         0.1227644613E+00      0.4407790938E+00
          0                 2           2             4    7     1      -0.3367501293E-03       4    7    1        -0.1801530090E-01      0.4988898174E-01
          0                 3           1             4    7     1      -0.6987695570E-04       4    7    1        -0.3730896729E-02      0.6292892934E-02

    ------------------------------------------------
       NWT REQUIRED            3 OUTER ITERATIONS 
       AND A TOTAL OF          5 INNER ITERATIONS.
    ------------------------------------------------

 NO OUTPUT CONTROL FOR STRESS PERIOD   24   TIME STEP   27
 
 SOLVING FOR HEAD 
                                                   Max.-Head-Change                         Max.-Flux-Residual
  Residual-Control   Outer-Iter.   Inner-Iter.     Column Row Layer    Maximum-Head-Change  Column Row Layer    Maximum-Flux-Residual          L2-NORM 
          0                 1           2             6    4     1       0.2311588537E-02       6    4    1         0.1214017942E+00      0.4368033692E+00
          0                 2           2             4    7     1      -0.3248589213E-03       4    7    1        -0.1736849564E-01      0.4921891496E-01
          0                 3           1             4    7     1      -0.6747072964E-04       4    7    1        -0.3600232780E-02      0.6142480183E-02

    ------------------------------------------------
       NWT REQUIRED            3 OUTER ITERATIONS 
       AND A TOTAL OF          5 INNER ITERATIONS.
    ------------------------------------------------

 NO OUTPUT CONTROL FOR STRESS PERIOD   24   TIME STEP   28
 
 SOLVING FOR HEAD 
                                                   Max.-Head-Change                         Max.-Flux-Residual
  Residual-Control   Outer-Iter.   Inner-Iter.     Column Row Layer    Maximum-Head-Change  Column Row Layer    Maximum-Flux-Residual          L2-NORM 
          0                 1           2             6    4     1       0.2286319272E-02       6    4    1         0.1200716841E+00      0.4329825154E+00
          0                 2           2             4    7     1      -0.3136419335E-03       4    7    1        -0.1675920647E-01      0.4858254820E-01
          0                 3           1             4    7     1      -0.6519619355E-04       4    7    1        -0.3476892429E-02      0.5999896738E-02

    ------------------------------------------------
       NWT REQUIRED            3 OUTER ITERATIONS 
       AND A TOTAL OF          5 INNER ITERATIONS.
    ------------------------------------------------

 NO OUTPUT CONTROL FOR STRESS PERIOD   24   TIME STEP   29
 
 SOLVING FOR HEAD 
                                                   Max.-Head-Change                         Max.-Flux-Residual
  Residual-Control   Outer-Iter.   Inner-Iter.     Column Row Layer    Maximum-Head-Change  Column Row Layer    Maximum-Flux-Residual          L2-NORM 
          0                 1           2             6    4     1       0.2261212043E-02       6    4    1         0.1187493908E+00      0.4292960162E+00
          0                 2           2             4    7     1      -0.3030307257E-03       4    7    1        -0.1618373327E-01      0.4797335669E-01
          0                 3           1             4    7     1      -0.6303935872E-04       4    7    1        -0.3360121384E-02      0.5863172268E-02

    ------------------------------------------------
       NWT REQUIRED            3 OUTER ITERATIONS 
       AND A TOTAL OF          5 INNER ITERATIONS.
    ------------------------------------------------

 NO OUTPUT CONTROL FOR STRESS PERIOD   24   TIME STEP   30



 STREAM LISTING     PERIOD     24   STEP       30

 LAYER ROW COL. STREAM  RCH.  FLOW INTO     FLOW TO   FLOW OUT OF   OVRLND.     DIRECT     STREAM       STREAM     STREAM     STREAM   STREAMBED  STREAMBED
                SEG.NO.  NO.  STRM. RCH.    AQUIFER    STRM. RCH.    RUNOFF     PRECIP       ET          HEAD       DEPTH      WIDTH   CONDCTNC.   GRADIENT

   1    1    1     1     1    1.5750E+01  1.9239E-01   1.5558E+01  0.000E+00  0.000E+00  0.000E+00  1.09407E+03  1.025E+00  1.062E+01  4.780E-02  1.342E+00
   1    2    2     1     2    1.5558E+01  2.9660E-01   1.5261E+01  0.000E+00  0.000E+00  0.000E+00  1.08908E+03  1.020E+00  1.054E+01  7.378E-02  1.340E+00
   1    3    3     1     3    1.5261E+01  2.5164E-01   1.5010E+01  0.000E+00  0.000E+00  0.000E+00  1.08343E+03  1.015E+00  1.045E+01  6.268E-02  1.338E+00
   1    3    4     1     4    1.5010E+01  2.3064E-01   1.4779E+01  0.000E+00  0.000E+00  0.000E+00  1.07842E+03  1.010E+00  1.036E+01  5.752E-02  1.337E+00
   1    4    5     2     1    1.2779E+01  2.9653E-01   1.2482E+01  0.000E+00  0.000E+00  0.000E+00  1.07274E+03  8.017E-01  1.200E+01  7.800E-02  1.267E+00
   1    5    6     2     2    1.2482E+01  2.2750E-01   1.2255E+01  0.000E+00  0.000E+00  0.000E+00  1.06730E+03  7.917E-01  1.200E+01  6.000E-02  1.264E+00
   1    6    6     2     3    1.2255E+01  2.2697E-01   1.2028E+01  0.000E+00  0.000E+00  0.000E+00  1.06258E+03  7.829E-01  1.200E+01  6.000E-02  1.261E+00
   1    7    6     2     4    1.2028E+01  2.2645E-01   1.1802E+01  0.000E+00  0.000E+00  0.000E+00  1.05785E+03  7.741E-01  1.200E+01  6.000E-02  1.258E+00
   1    8    6     2     5    1.1802E+01  2.2591E-01   1.1576E+01  0.000E+00  0.000E+00  0.000E+00  1.05312E+03  7.652E-01  1.200E+01  6.000E-02  1.255E+00
   1    3    5     3     1    2.0000E+00  2.8252E-01   1.7175E+00  0.000E+00  0.000E+00  0.000E+00  1.07555E+03  1.909E+00  9.636E+00  7.227E-02  1.955E+00
   1    3    6     3     2    1.7175E+00  2.4905E-01   1.4684E+00  0.000E+00  0.000E+00  0.000E+00  1.07264E+03  1.727E+00  8.909E+00  6.682E-02  1.864E+00
   1    3    7     3     3    1.4684E+00  1.9718E-01   1.2712E+00  0.000E+00  0.000E+00  0.000E+00  1.06987E+03  1.555E+00  8.218E+00  5.547E-02  1.777E+00
   1    4    8     3     4    1.2712E+00  2.2567E-01   1.0456E+00  0.000E+00  0.000E+00  0.000E+00  1.06682E+03  1.364E+00  7.455E+00  6.709E-02  1.682E+00
   1    5    8     3     5    1.0456E+00  1.5790E-01   8.8768E-01  0.000E+00  0.000E+00  0.000E+00  1.06362E+03  1.164E+00  6.655E+00  4.991E-02  1.582E+00
   1    6    8     3     6    8.8768E-01  5.5980E-02   8.3170E-01  0.000E+00  0.000E+00  0.000E+00  1.06158E+03  1.036E+00  6.145E+00  1.844E-02  1.518E+00
   1    5   10     4     1    1.0000E+01  9.0919E-02   9.9091E+00  0.000E+00  0.000E+00  0.000E+00  1.07836E+03  6.368E-01  1.000E+01  2.500E-02  1.212E+00
   1    5    9     4     2    9.9091E+00  1.8158E-01   9.7275E+00  0.000E+00  0.000E+00  0.000E+00  1.07154E+03  6.315E-01  1.000E+01  5.000E-02  1.211E+00
   1    6    8     4     3    9.7275E+00  1.2689E-01   9.6006E+00  0.000E+00  0.000E+00  0.000E+00  1.06381E+03  6.256E-01  1.000E+01  3.500E-02  1.209E+00
   1    6    8     5     1    1.0432E+01  2.2686E-01   1.0205E+01  0.000E+00  0.000E+00  0.000E+00  1.05868E+03  6.790E-01  1.542E+01  6.166E-02  1.226E+00
   1    7    7     5     2    1.0205E+01  2.7894E-01   9.9265E+00  0.000E+00  0.000E+00  0.000E+00  1.05417E+03  6.732E-01  1.519E+01  7.594E-02  1.224E+00
   1    8    7     5     3    9.9265E+00  1.9221E-01   9.7343E+00  0.000E+00  0.000E+00  0.000E+00  1.04992E+03  6.676E-01  1.497E+01  5.241E-02  1.223E+00
   1    8    6     5     4    9.7343E+00  1.3577E-01   9.5985E+00  0.000E+00  0.000E+00  0.000E+00  1.04691E+03  6.637E-01  1.482E+01  3.706E-02  1.221E+00
   1    9    6     6     1    2.1174E+01  2.4608E-01   2.0928E+01  0.000E+00  0.000E+00  0.000E+00  1.04383E+03  1.101E+00  1.200E+01  6.000E-02  1.367E+00
   1   10    7     6     2    2.0928E+01  2.4562E-01   2.0682E+01  0.000E+00  0.000E+00  0.000E+00  1.03928E+03  1.094E+00  1.200E+01  6.000E-02  1.365E+00
   1   11    7     6     3    2.0682E+01  2.4515E-01   2.0437E+01  0.000E+00  0.000E+00  0.000E+00  1.03472E+03  1.086E+00  1.200E+01  6.000E-02  1.362E+00
   1   12    7     6     4    2.0437E+01  2.4469E-01   2.0193E+01  0.000E+00  0.000E+00  0.000E+00  1.03017E+03  1.078E+00  1.200E+01  6.000E-02  1.359E+00
   1   13    7     6     5    2.0193E+01 -4.2123E-03   2.0197E+01  0.000E+00  0.000E+00  0.000E+00  1.02698E+03  1.074E+00  1.200E+01  2.400E-01 -5.850E-03
   1   14    9     7     1    1.5000E+02  1.3457E+00   1.4865E+02  0.000E+00  0.000E+00  0.000E+00  1.03987E+03  2.288E+00  5.529E+01  5.593E-01  8.020E-01
   1   13    8     7     2    1.4865E+02  1.8625E+00   1.4679E+02  0.000E+00  0.000E+00  0.000E+00  1.03478E+03  2.279E+00  5.526E+01  6.148E-01  1.010E+00
   1   13    7     7     3    1.4679E+02  1.5014E+00   1.4529E+02  0.000E+00  0.000E+00  0.000E+00  1.02969E+03  2.270E+00  5.522E+01  5.584E-01  8.962E-01
   1   13    6     8     1    1.6549E+02  9.2144E-01   1.6457E+02  0.000E+00  0.000E+00  0.000E+00  1.02479E+03  2.920E+00  4.233E+01  4.314E-01  7.120E-01
   1   13    5     8     2    1.6457E+02  1.7034E-01   1.6440E+02  0.000E+00  0.000E+00  0.000E+00  1.01854E+03  2.916E+00  4.228E+01  4.309E-01  1.318E-01
   1   13    4     8     3    1.6440E+02 -2.4732E+00   1.6687E+02  0.000E+00  0.000E+00  0.000E+00  1.01230E+03  2.924E+00  4.239E+01  4.320E+00 -1.908E-01
   1   13    3     8     4    1.6687E+02 -3.6477E+00   1.7052E+02  0.000E+00  0.000E+00  0.000E+00  1.00607E+03  2.944E+00  4.268E+01  4.350E+00 -2.795E-01
   1   13    2     8     5    1.7052E+02 -2.5668E+00   1.7308E+02  0.000E+00  0.000E+00  0.000E+00  9.99839E+02  2.964E+00  4.298E+01  4.379E+00 -1.954E-01
   1   13    1     8     6    1.7308E+02 -1.9704E+00   1.7505E+02  0.000E+00  0.000E+00  0.000E+00  9.94854E+02  2.978E+00  4.319E+01  2.641E+00 -2.487E-01
   1    8    6     9     1    0.0000E+00  0.0000E+00   0.0000E+00  0.000E+00  0.000E+00  0.000E+00  1.07875E+03  0.000E+00  4.000E+00  0.000E+00  1.000E+00
   1    8    5     9     2    0.0000E+00  0.0000E+00   0.0000E+00  0.000E+00  0.000E+00  0.000E+00  1.07825E+03  0.000E+00  4.000E+00  0.000E+00  1.000E+00





UNSATURATED ZONE PACKAGE VOLUMETRIC BUDGET FOR  TIME STEP    30 STRESS PERIOD   24
  ------------------------------------------------------------------------------



     CUMULATIVE VOLUMES      L**3       RATES FOR THIS TIME STEP      L**3/T
     ------------------                 ------------------------

           IN:                                      IN:
           ---                                      ---
        INFILTRATION =  2823251755.8679          INFILTRATION =           0.8475

          OUT:                                     OUT:
          ----                                     ----
              UZF ET =   862590214.9228                UZF ET =           0.7500
        UZF RECHARGE =  1604750573.7974          UZF RECHARGE =           1.2422

            IN - OUT =   355910967.1477              IN - OUT =          -1.1447

          STORAGE:                                 STORAGE:
          --------                                 --------
      STORAGE CHANGE =   355907592.2642        STORAGE CHANGE =          -1.1447

 PERCENT DISCREPANCY IS DIFFERENCE BETWEEN IN-OUT MINUS CHANGE IN STORAGE
 DIVIDED BY THE AVERAGE OF IN AND OUT TIMES 100

 PERCENT DISCREPANCY =           0.00     PERCENT DISCREPANCY =           0.00






1
  VOLUMETRIC BUDGET FOR AGRICULTURAL FIELDS AT  END OF TIME STEP   30, STRESS PERIOD  24
  ------------------------------------------------------------------------------

     CUMULATIVE VOLUMES      L**3       RATES FOR THIS TIME STEP      L**3/T
     ------------------                 ------------------------

           IN:                                      IN:
           ---                                      ---
           AG WELLS      =  1742828032.0000             AG WELLS      =           0.0000
      DIVERSION SEGMENTS =  1029065024.0000        DIVERSION SEGMENTS =           0.0000
           GW IRRIGATION =           0.0000             GW IRRIGATION =           0.0000
           SW IRRIGATION =           0.0000             SW IRRIGATION =           0.0000
        SYSTEM LOSSES GW =           0.0000          SYSTEM LOSSES GW =           0.0000
        SYSTEM LOSSES SW =           0.0000          SYSTEM LOSSES SW =           0.0000

                TOTAL IN =  2771892992.0000                  TOTAL IN =           0.0000

          OUT:                                     OUT:
          ----                                     ----
           AG WELLS      =           0.0000             AG WELLS      =           0.0000
      DIVERSION SEGMENTS =           0.0000        DIVERSION SEGMENTS =           0.0000
           GW IRRIGATION =  1742828032.0000             GW IRRIGATION =           0.0000
           SW IRRIGATION =  1029085184.0000             SW IRRIGATION =           0.0000
        SYSTEM LOSSES GW =           0.0000          SYSTEM LOSSES GW =           0.0000
        SYSTEM LOSSES SW =           0.0000          SYSTEM LOSSES SW =           0.0000

               TOTAL OUT =  2771913216.0000                 TOTAL OUT =           0.0000

                IN - OUT =      -20224.0000                  IN - OUT =           0.0000

     PERCENT DISCREPANCY =          -0.00         PERCENT DISCREPANCY =           0.00



1
  VOLUMETRIC BUDGET FOR ENTIRE MODEL AT END OF TIME STEP   30, STRESS PERIOD  24
  ------------------------------------------------------------------------------

     CUMULATIVE VOLUMES      L**3       RATES FOR THIS TIME STEP      L**3/T
     ------------------                 ------------------------

           IN:                                      IN:
           ---                                      ---
             STORAGE     =  1766195456.0000               STORAGE     =           0.8096
       CONSTANT HEAD     =           0.0000         CONSTANT HEAD     =           0.0000
     HEAD DEP BOUNDS     =    17322754.0000       HEAD DEP BOUNDS     =           0.2864
      STREAM LEAKAGE     =   722804992.0000        STREAM LEAKAGE     =          11.3591
        UZF RECHARGE     =  1604750464.0000          UZF RECHARGE     =           1.2422
               GW ET     =           0.0000                 GW ET     =           0.0000
     SURFACE LEAKAGE     =           0.0000       SURFACE LEAKAGE     =           0.0000
           AG WELLS      =           0.0000             AG WELLS      =           0.0000

                TOTAL IN =  4111073792.0000                  TOTAL IN =          13.6973

          OUT:                                     OUT:
          ----                                     ----
             STORAGE     =  1698371072.0000               STORAGE     =           2.7494
       CONSTANT HEAD     =           0.0000         CONSTANT HEAD     =           0.0000
     HEAD DEP BOUNDS     =    17531070.0000       HEAD DEP BOUNDS     =           0.2888
      STREAM LEAKAGE     =   652265664.0000        STREAM LEAKAGE     =          10.6622
        UZF RECHARGE     =           0.0000          UZF RECHARGE     =           0.0000
               GW ET     =      106432.0312                 GW ET     =           0.0000
     SURFACE LEAKAGE     =           0.0000       SURFACE LEAKAGE     =           0.0000
           AG WELLS      =  1742828032.0000             AG WELLS      =           0.0000

               TOTAL OUT =  4111102208.0000                 TOTAL OUT =          13.7004

                IN - OUT =      -28416.0000                  IN - OUT =      -3.0651E-03

     PERCENT DISCREPANCY =          -0.00         PERCENT DISCREPANCY =          -0.02






         TIME SUMMARY AT END OF TIME STEP   30 IN STRESS PERIOD   24
                    SECONDS     MINUTES      HOURS       DAYS        YEARS
                    -----------------------------------------------------------
   TIME STEP LENGTH  87667.      1461.1      24.352      1.0147     2.77799E-03
 STRESS PERIOD TIME 2.63000E+06  43833.      730.56      30.440     8.33397E-02
         TOTAL TIME 6.05767E+07 1.00961E+06  16827.      701.12      1.9196    
1
1
                            STRESS PERIOD NO.   25, LENGTH =   2630000.    
                            -----------------------------------------------

                              NUMBER OF TIME STEPS =    30

                               MULTIPLIER FOR DELT =     1.000

                            INITIAL TIME STEP SIZE =   87666.66    

 REUSING NON-PARAMETER GHB CELLS FROM LAST STRESS PERIOD

      2 GHB CELLS

 REUSING STREAM SEGMENT DATA FROM LAST STRESS PERIOD



            AREAL INFILTRATION RATE
 READING ON UNIT   19 WITH FORMAT: (FREE)              

            1           2           3           4           5           6           7           8           9          10
 ........................................................................................................................
   1   1.0000E-10  2.0000E-10   0.000       0.000       0.000       0.000       0.000       0.000       0.000       0.000    
   2   2.0000E-10  1.0000E-10  2.0000E-10   0.000       0.000      8.0000E-10  8.0000E-10  5.0000E-10   0.000       0.000    
   3    0.000      5.0000E-10  1.0000E-10  1.0000E-10  8.0000E-10  8.0000E-10  5.0000E-10  5.0000E-10   0.000       0.000    
   4   8.0000E-10  5.0000E-10  1.0000E-10  1.0000E-10  1.0000E-10  1.0000E-10  1.0000E-10  1.0000E-10  2.0000E-10   0.000    
   5   8.0000E-10  5.0000E-10  1.0000E-10  1.0000E-10  1.0000E-10  1.0000E-10  1.0000E-10  1.0000E-10  1.0000E-10  1.0000E-10
   6   8.0000E-10  5.0000E-10  5.0000E-10  2.0000E-10  2.0000E-10  1.0000E-10  1.0000E-10  1.0000E-10  1.0000E-10  5.0000E-10
   7   8.0000E-10  5.0000E-10  5.0000E-10  2.0000E-10  2.0000E-10  1.0000E-10  1.0000E-10  2.0000E-10  2.0000E-10   0.000    
   8    0.000      5.0000E-10  5.0000E-10  2.0000E-10  2.0000E-10  1.0000E-10  1.0000E-10  2.0000E-10  5.0000E-10   0.000    
   9    0.000      5.0000E-10  5.0000E-10  2.0000E-10  2.0000E-10  1.0000E-10  1.0000E-10  2.0000E-10  5.0000E-10   0.000    
  10    0.000      5.0000E-10  5.0000E-10  2.0000E-10  2.0000E-10  1.0000E-10  1.0000E-10  2.0000E-10  5.0000E-10  8.0000E-10
  11    0.000      1.0000E-10  1.0000E-10  1.0000E-10  1.0000E-10  1.0000E-10  1.0000E-10  2.0000E-10  5.0000E-10   0.000    
  12   1.0000E-10  1.0000E-10  1.0000E-10  1.0000E-10  1.0000E-10  1.0000E-10  1.0000E-10  1.0000E-10  2.0000E-10   0.000    
  13   1.0000E-10  1.0000E-10  2.0000E-10  2.0000E-10  2.0000E-10  2.0000E-10  2.0000E-10  1.0000E-10  1.0000E-10   0.000    
  14    0.000      2.0000E-10  5.0000E-10  5.0000E-10  5.0000E-10  5.0000E-10  5.0000E-10  2.0000E-10  1.0000E-10   0.000    
  15    0.000       0.000      8.0000E-10  8.0000E-10  8.0000E-10  8.0000E-10   0.000       0.000       0.000       0.000    

                  ET RATE =  5.000000E-10

 USING ET EXTINCTION DEPTH FROM PREVIOUS STRESS PERIOD. CURRENT PERIOD IS:      25

 USING EXTINCTION WATER CONTENT FROM PREVIOUS STRESS PERIOD. CURRENT PERIOD IS:      25

 USING AIR ENTRY PRESSURE FROM PREVIOUS STRESS PERIOD. CURRENT PERIOD IS:      25

 USING ROOT PRESSURE HEAD FROM PREVIOUS STRESS PERIOD. CURRENT PERIOD IS:      25

 USING ROOT ACTIVITY FROM PREVIOUS STRESS PERIOD. CURRENT PERIOD IS:      25

 PROCESSING AG STRESS PERIOD DATA

 READING AG STRESS PERIOD DATA

 READING IRRIGATION SEGMENT

 READING IRRIGATION WELL

 READING SUPPLEMENTAL WELL

 END PROCESSING AG STRESS PERIOD DATA OPTIONS
 
 SOLVING FOR HEAD 
                                                   Max.-Head-Change                         Max.-Flux-Residual
  Residual-Control   Outer-Iter.   Inner-Iter.     Column Row Layer    Maximum-Head-Change  Column Row Layer    Maximum-Flux-Residual          L2-NORM 
          0                 1           2             6    4     1       0.2235622357E-02       6    4    1         0.1174354986E+00      0.4236585983E+00
          0                 2           2             4    7     1      -0.2930321050E-03       4    7    1        -0.1564211245E-01      0.4720822186E-01
          0                 3           1             4    7     1      -0.6100346283E-04       4    7    1        -0.3250027910E-02      0.5725908742E-02

    ------------------------------------------------
       NWT REQUIRED            3 OUTER ITERATIONS 
       AND A TOTAL OF          5 INNER ITERATIONS.
    ------------------------------------------------

 NO OUTPUT CONTROL FOR STRESS PERIOD   25   TIME STEP    1
 
 SOLVING FOR HEAD 
                                                   Max.-Head-Change                         Max.-Flux-Residual
  Residual-Control   Outer-Iter.   Inner-Iter.     Column Row Layer    Maximum-Head-Change  Column Row Layer    Maximum-Flux-Residual          L2-NORM 
          0                 1           2             6    4     1       0.2210468451E-02       6    4    1         0.1161208073E+00      0.4196661232E+00
          0                 2           2             4    7     1      -0.2835860877E-03       4    7    1        -0.1513119038E-01      0.4660098889E-01
          0                 3           1             4    7     1      -0.5907577248E-04       4    7    1        -0.3145942037E-02      0.5599295365E-02

    ------------------------------------------------
       NWT REQUIRED            3 OUTER ITERATIONS 
       AND A TOTAL OF          5 INNER ITERATIONS.
    ------------------------------------------------

 NO OUTPUT CONTROL FOR STRESS PERIOD   25   TIME STEP    2
 
 SOLVING FOR HEAD 
                                                   Max.-Head-Change                         Max.-Flux-Residual
  Residual-Control   Outer-Iter.   Inner-Iter.     Column Row Layer    Maximum-Head-Change  Column Row Layer    Maximum-Flux-Residual          L2-NORM 
          0                 1           2             6    4     1       0.2185764135E-02       6    4    1         0.1148166042E+00      0.4162171046E+00
          0                 2           2             4    7     1      -0.2745946427E-03       4    7    1        -0.1464539926E-01      0.4605610878E-01
          0                 3           1             4    7     1      -0.5723776770E-04       4    7    1        -0.3046810187E-02      0.5479848390E-02

    ------------------------------------------------
       NWT REQUIRED            3 OUTER ITERATIONS 
       AND A TOTAL OF          5 INNER ITERATIONS.
    ------------------------------------------------

 NO OUTPUT CONTROL FOR STRESS PERIOD   25   TIME STEP    3
 
 SOLVING FOR HEAD 
                                                   Max.-Head-Change                         Max.-Flux-Residual
  Residual-Control   Outer-Iter.   Inner-Iter.     Column Row Layer    Maximum-Head-Change  Column Row Layer    Maximum-Flux-Residual          L2-NORM 
          0                 1           2             6    4     1       0.2161271017E-02       6    4    1         0.1135236023E+00      0.4128633388E+00
          0                 2           2             4    7     1      -0.2660116708E-03       4    7    1        -0.1418234307E-01      0.4552802994E-01
          0                 3           1             4    7     1      -0.5547948832E-04       4    7    1        -0.2952114683E-02      0.5363559957E-02

    ------------------------------------------------
       NWT REQUIRED            3 OUTER ITERATIONS 
       AND A TOTAL OF          5 INNER ITERATIONS.
    ------------------------------------------------

 NO OUTPUT CONTROL FOR STRESS PERIOD   25   TIME STEP    4
 
 SOLVING FOR HEAD 
                                                   Max.-Head-Change                         Max.-Flux-Residual
  Residual-Control   Outer-Iter.   Inner-Iter.     Column Row Layer    Maximum-Head-Change  Column Row Layer    Maximum-Flux-Residual          L2-NORM 
          0                 1           2             6    4     1       0.2137225286E-02       6    4    1         0.1122536636E+00      0.4096322045E+00
          0                 2           2             4    7     1      -0.2578582574E-03       4    7    1        -0.1374301557E-01      0.4502064342E-01
          0                 3           1             4    7     1      -0.5380605835E-04       4    7    1        -0.2862102605E-02      0.5251603328E-02

    ------------------------------------------------
       NWT REQUIRED            3 OUTER ITERATIONS 
       AND A TOTAL OF          5 INNER ITERATIONS.
    ------------------------------------------------

 NO OUTPUT CONTROL FOR STRESS PERIOD   25   TIME STEP    5
 
 SOLVING FOR HEAD 
                                                   Max.-Head-Change                         Max.-Flux-Residual
  Residual-Control   Outer-Iter.   Inner-Iter.     Column Row Layer    Maximum-Head-Change  Column Row Layer    Maximum-Flux-Residual          L2-NORM 
          0                 1           2             6    4     1       0.2113619246E-02       6    4    1         0.1110069213E+00      0.4064912942E+00
          0                 2           2             4    7     1      -0.2500969028E-03       4    7    1        -0.1332536246E-01      0.4453143662E-01
          0                 3           1             4    7     1      -0.5220997498E-04       4    7    1        -0.2776363347E-02      0.5143299582E-02

    ------------------------------------------------
       NWT REQUIRED            3 OUTER ITERATIONS 
       AND A TOTAL OF          5 INNER ITERATIONS.
    ------------------------------------------------

 NO OUTPUT CONTROL FOR STRESS PERIOD   25   TIME STEP    6
 
 SOLVING FOR HEAD 
                                                   Max.-Head-Change                         Max.-Flux-Residual
  Residual-Control   Outer-Iter.   Inner-Iter.     Column Row Layer    Maximum-Head-Change  Column Row Layer    Maximum-Flux-Residual          L2-NORM 
          0                 1           2             6    4     1       0.2090443425E-02       6    4    1         0.1097829765E+00      0.4034357409E+00
          0                 2           2             4    7     1      -0.2426411156E-03       4    7    1        -0.1292457477E-01      0.4405654842E-01
          0                 3           1             4    7     1      -0.5067425191E-04       4    7    1        -0.2693956679E-02      0.5037945294E-02

    ------------------------------------------------
       NWT REQUIRED            3 OUTER ITERATIONS 
       AND A TOTAL OF          5 INNER ITERATIONS.
    ------------------------------------------------

 NO OUTPUT CONTROL FOR STRESS PERIOD   25   TIME STEP    7
 
 SOLVING FOR HEAD 
                                                   Max.-Head-Change                         Max.-Flux-Residual
  Residual-Control   Outer-Iter.   Inner-Iter.     Column Row Layer    Maximum-Head-Change  Column Row Layer    Maximum-Flux-Residual          L2-NORM 
          0                 1           2             6    4     1       0.2067468812E-02       6    4    1         0.1085692243E+00      0.4004631318E+00
          0                 2           2             4    7     1      -0.2355196033E-03       4    7    1        -0.1254223188E-01      0.4359683775E-01
          0                 3           1             4    7     1      -0.4920474148E-04       4    7    1        -0.2615196989E-02      0.4935793443E-02

    ------------------------------------------------
       NWT REQUIRED            3 OUTER ITERATIONS 
       AND A TOTAL OF          5 INNER ITERATIONS.
    ------------------------------------------------

 NO OUTPUT CONTROL FOR STRESS PERIOD   25   TIME STEP    8
 
 SOLVING FOR HEAD 
                                                   Max.-Head-Change                         Max.-Flux-Residual
  Residual-Control   Outer-Iter.   Inner-Iter.     Column Row Layer    Maximum-Head-Change  Column Row Layer    Maximum-Flux-Residual          L2-NORM 
          0                 1           2             6    4     1       0.2045148190E-02       6    4    1         0.1073901315E+00      0.3975745515E+00
          0                 2           2             4    7     1      -0.2287084556E-03       4    7    1        -0.1217689240E-01      0.4315251884E-01
          0                 3           1             4    7     1      -0.4779724609E-04       4    7    1        -0.2539834928E-02      0.4837000494E-02

    ------------------------------------------------
       NWT REQUIRED            3 OUTER ITERATIONS 
       AND A TOTAL OF          5 INNER ITERATIONS.
    ------------------------------------------------

 NO OUTPUT CONTROL FOR STRESS PERIOD   25   TIME STEP    9
 
 SOLVING FOR HEAD 
                                                   Max.-Head-Change                         Max.-Flux-Residual
  Residual-Control   Outer-Iter.   Inner-Iter.     Column Row Layer    Maximum-Head-Change  Column Row Layer    Maximum-Flux-Residual          L2-NORM 
          0                 1           2             6    4     1       0.2023018769E-02       6    4    1         0.1062207201E+00      0.3947680714E+00
          0                 2           2             4    7     1      -0.2221274971E-03       4    7    1        -0.1182425520E-01      0.4272168923E-01
          0                 3           1             4    7     1      -0.4643536519E-04       4    7    1        -0.2466984285E-02      0.4740714520E-02

    ------------------------------------------------
       NWT REQUIRED            3 OUTER ITERATIONS 
       AND A TOTAL OF          5 INNER ITERATIONS.
    ------------------------------------------------

 NO OUTPUT CONTROL FOR STRESS PERIOD   25   TIME STEP   10
 
 SOLVING FOR HEAD 
                                                   Max.-Head-Change                         Max.-Flux-Residual
  Residual-Control   Outer-Iter.   Inner-Iter.     Column Row Layer    Maximum-Head-Change  Column Row Layer    Maximum-Flux-Residual          L2-NORM 
          0                 1           2             6    4     1       0.2001302852E-02       6    4    1         0.1050733359E+00      0.3920217983E+00
          0                 2           2             4    7     1      -0.2158141236E-03       4    7    1        -0.1148627411E-01      0.4230243731E-01
          0                 3           1             4    7     1      -0.4512695379E-04       4    7    1        -0.2397063241E-02      0.4646962908E-02

    ------------------------------------------------
       NWT REQUIRED            3 OUTER ITERATIONS 
       AND A TOTAL OF          5 INNER ITERATIONS.
    ------------------------------------------------

 NO OUTPUT CONTROL FOR STRESS PERIOD   25   TIME STEP   11
 
 SOLVING FOR HEAD 
                                                   Max.-Head-Change                         Max.-Flux-Residual
  Residual-Control   Outer-Iter.   Inner-Iter.     Column Row Layer    Maximum-Head-Change  Column Row Layer    Maximum-Flux-Residual          L2-NORM 
          0                 1           2             6    4     1       0.1979997224E-02       6    4    1         0.1039473912E+00      0.3893396236E+00
          0                 2           2             4    7     1      -0.2097470379E-03       4    7    1        -0.1116183949E-01      0.4189480305E-01
          0                 3           1             4    7     1      -0.4386759266E-04       4    7    1        -0.2329833741E-02      0.4555666791E-02

    ------------------------------------------------
       NWT REQUIRED            3 OUTER ITERATIONS 
       AND A TOTAL OF          5 INNER ITERATIONS.
    ------------------------------------------------

 NO OUTPUT CONTROL FOR STRESS PERIOD   25   TIME STEP   12
 
 SOLVING FOR HEAD 
                                                   Max.-Head-Change                         Max.-Flux-Residual
  Residual-Control   Outer-Iter.   Inner-Iter.     Column Row Layer    Maximum-Head-Change  Column Row Layer    Maximum-Flux-Residual          L2-NORM 
          0                 1           2             6    4     1       0.1959093776E-02       6    4    1         0.1028427196E+00      0.3867256973E+00
          0                 2           2             4    7     1      -0.2038549272E-03       4    7    1        -0.1084695938E-01      0.4149881372E-01
          0                 3           1             4    7     1      -0.4264334062E-04       4    7    1        -0.2264522717E-02      0.4466694461E-02

    ------------------------------------------------
       NWT REQUIRED            3 OUTER ITERATIONS 
       AND A TOTAL OF          5 INNER ITERATIONS.
    ------------------------------------------------

 NO OUTPUT CONTROL FOR STRESS PERIOD   25   TIME STEP   13
 
 SOLVING FOR HEAD 
                                                   Max.-Head-Change                         Max.-Flux-Residual
  Residual-Control   Outer-Iter.   Inner-Iter.     Column Row Layer    Maximum-Head-Change  Column Row Layer    Maximum-Flux-Residual          L2-NORM 
          0                 1           2             6    4     1       0.1938360805E-02       6    4    1         0.1017467866E+00      0.3841717092E+00
          0                 2           2             4    7     1      -0.1981801965E-03       4    7    1        -0.1054394930E-01      0.4111382209E-01
          0                 3           1             4    7     1      -0.4146278624E-04       4    7    1        -0.2201595595E-02      0.4380099728E-02

    ------------------------------------------------
       NWT REQUIRED            3 OUTER ITERATIONS 
       AND A TOTAL OF          5 INNER ITERATIONS.
    ------------------------------------------------

 NO OUTPUT CONTROL FOR STRESS PERIOD   25   TIME STEP   14
 
 SOLVING FOR HEAD 
                                                   Max.-Head-Change                         Max.-Flux-Residual
  Residual-Control   Outer-Iter.   Inner-Iter.     Column Row Layer    Maximum-Head-Change  Column Row Layer    Maximum-Flux-Residual          L2-NORM 
          0                 1           2             6    4     1       0.1918253232E-02       6    4    1         0.1006839203E+00      0.3816701315E+00
          0                 2           2             4    7     1      -0.1927063615E-03       4    7    1        -0.1025193415E-01      0.4073846537E-01
          0                 3           1             4    7     1      -0.4032248697E-04       4    7    1        -0.2140869125E-02      0.4295572004E-02

    ------------------------------------------------
       NWT REQUIRED            3 OUTER ITERATIONS 
       AND A TOTAL OF          5 INNER ITERATIONS.
    ------------------------------------------------

 NO OUTPUT CONTROL FOR STRESS PERIOD   25   TIME STEP   15
 
 SOLVING FOR HEAD 
                                                   Max.-Head-Change                         Max.-Flux-Residual
  Residual-Control   Outer-Iter.   Inner-Iter.     Column Row Layer    Maximum-Head-Change  Column Row Layer    Maximum-Flux-Residual          L2-NORM 
          0                 1           2             6    4     1       0.1898305081E-02       6    4    1         0.9962925230E-01      0.3792244057E+00
          0                 2           2             4    7     1      -0.1873644951E-03       4    7    1        -0.9967141630E-02      0.4037258270E-01
          0                 3           1             4    7     1      -0.3920863745E-04       4    7    1        -0.2081588265E-02      0.4212864016E-02

    ------------------------------------------------
       NWT REQUIRED            3 OUTER ITERATIONS 
       AND A TOTAL OF          5 INNER ITERATIONS.
    ------------------------------------------------

 NO OUTPUT CONTROL FOR STRESS PERIOD   25   TIME STEP   16
 
 SOLVING FOR HEAD 
                                                   Max.-Head-Change                         Max.-Flux-Residual
  Residual-Control   Outer-Iter.   Inner-Iter.     Column Row Layer    Maximum-Head-Change  Column Row Layer    Maximum-Flux-Residual          L2-NORM 
          0                 1           2             6    4     1       0.1878739742E-02       6    4    1         0.9859496414E-01      0.3768336167E+00
          0                 2           2             6    4     1      -0.1827512651E-03       6    4    1        -0.9859502969E-02      0.4001658275E-01
          0                 3           1             4    7     1      -0.3813100050E-04       4    7    1        -0.2024275689E-02      0.4132198854E-02

    ------------------------------------------------
       NWT REQUIRED            3 OUTER ITERATIONS 
       AND A TOTAL OF          5 INNER ITERATIONS.
    ------------------------------------------------

 NO OUTPUT CONTROL FOR STRESS PERIOD   25   TIME STEP   17
 
 SOLVING FOR HEAD 
                                                   Max.-Head-Change                         Max.-Flux-Residual
  Residual-Control   Outer-Iter.   Inner-Iter.     Column Row Layer    Maximum-Head-Change  Column Row Layer    Maximum-Flux-Residual          L2-NORM 
          0                 1           2             6    4     1       0.1859551308E-02       6    4    1         0.9758052421E-01      0.3744970130E+00
          0                 2           2             6    4     1      -0.1808847126E-03       6    4    1        -0.9758058785E-02      0.3967038706E-01
          0                 3           1             4    7     1      -0.3708699724E-04       4    7    1        -0.1968793101E-02      0.4053932594E-02

    ------------------------------------------------
       NWT REQUIRED            3 OUTER ITERATIONS 
       AND A TOTAL OF          5 INNER ITERATIONS.
    ------------------------------------------------

 NO OUTPUT CONTROL FOR STRESS PERIOD   25   TIME STEP   18
 
 SOLVING FOR HEAD 
                                                   Max.-Head-Change                         Max.-Flux-Residual
  Residual-Control   Outer-Iter.   Inner-Iter.     Column Row Layer    Maximum-Head-Change  Column Row Layer    Maximum-Flux-Residual          L2-NORM 
          0                 1           2             6    4     1       0.1840733901E-02       6    4    1         0.9658562639E-01      0.3722074738E+00
          0                 2           2             6    4     1      -0.1790542529E-03       6    4    1        -0.9658568840E-02      0.3933339388E-01
          0                 3           1             4    7     1      -0.3607561046E-04       4    7    1        -0.1915069045E-02      0.3977847936E-02

    ------------------------------------------------
       NWT REQUIRED            3 OUTER ITERATIONS 
       AND A TOTAL OF          5 INNER ITERATIONS.
    ------------------------------------------------

 NO OUTPUT CONTROL FOR STRESS PERIOD   25   TIME STEP   19
 
 SOLVING FOR HEAD 
                                                   Max.-Head-Change                         Max.-Flux-Residual
  Residual-Control   Outer-Iter.   Inner-Iter.     Column Row Layer    Maximum-Head-Change  Column Row Layer    Maximum-Flux-Residual          L2-NORM 
          0                 1           2             6    4     1       0.1822281568E-02       6    4    1         0.9560996590E-01      0.3699661869E+00
          0                 2           2             6    4     1      -0.1772593057E-03       6    4    1        -0.9561002625E-02      0.3900471481E-01
          0                 3           1             4    7     1      -0.3508294074E-04       4    7    1        -0.1862362393E-02      0.3903166041E-02

    ------------------------------------------------
       NWT REQUIRED            3 OUTER ITERATIONS 
       AND A TOTAL OF          5 INNER ITERATIONS.
    ------------------------------------------------

 NO OUTPUT CONTROL FOR STRESS PERIOD   25   TIME STEP   20
 
 SOLVING FOR HEAD 
                                                   Max.-Head-Change                         Max.-Flux-Residual
  Residual-Control   Outer-Iter.   Inner-Iter.     Column Row Layer    Maximum-Head-Change  Column Row Layer    Maximum-Flux-Residual          L2-NORM 
          0                 1           2             6    4     1       0.1803961976E-02       6    4    1         0.9464111976E-01      0.3677650927E+00
          0                 2           2             6    4     1      -0.1754772719E-03       6    4    1        -0.9464117850E-02      0.3868419441E-01
          0                 3           1             4    7     1      -0.3412976605E-04       4    7    1        -0.1811803480E-02      0.3830968697E-02

    ------------------------------------------------
       NWT REQUIRED            3 OUTER ITERATIONS 
       AND A TOTAL OF          5 INNER ITERATIONS.
    ------------------------------------------------

 NO OUTPUT CONTROL FOR STRESS PERIOD   25   TIME STEP   21
 
 SOLVING FOR HEAD 
                                                   Max.-Head-Change                         Max.-Flux-Residual
  Residual-Control   Outer-Iter.   Inner-Iter.     Column Row Layer    Maximum-Head-Change  Column Row Layer    Maximum-Flux-Residual          L2-NORM 
          0                 1           2             6    4     1       0.1786228861E-02       6    4    1         0.9370338469E-01      0.3656257248E+00
          0                 2           2             6    4     1      -0.1737522871E-03       6    4    1        -0.9370344199E-02      0.3837301549E-01
          0                 3           1             4    7     1      -0.3319235586E-04       4    7    1        -0.1762088803E-02      0.3760098172E-02

    ------------------------------------------------
       NWT REQUIRED            3 OUTER ITERATIONS 
       AND A TOTAL OF          5 INNER ITERATIONS.
    ------------------------------------------------

 NO OUTPUT CONTROL FOR STRESS PERIOD   25   TIME STEP   22
 
 SOLVING FOR HEAD 
                                                   Max.-Head-Change                         Max.-Flux-Residual
  Residual-Control   Outer-Iter.   Inner-Iter.     Column Row Layer    Maximum-Head-Change  Column Row Layer    Maximum-Flux-Residual          L2-NORM 
          0                 1           2             6    4     1       0.1768616541E-02       6    4    1         0.9277182906E-01      0.3635094987E+00
          0                 2           2             6    4     1      -0.1720390531E-03       6    4    1        -0.9277188480E-02      0.3806706823E-01
          0                 3           1             4    7     1      -0.3226949038E-04       4    7    1        -0.1713159393E-02      0.3690718164E-02

    ------------------------------------------------
       NWT REQUIRED            3 OUTER ITERATIONS 
       AND A TOTAL OF          5 INNER ITERATIONS.
    ------------------------------------------------

 NO OUTPUT CONTROL FOR STRESS PERIOD   25   TIME STEP   23
 
 SOLVING FOR HEAD 
                                                   Max.-Head-Change                         Max.-Flux-Residual
  Residual-Control   Outer-Iter.   Inner-Iter.     Column Row Layer    Maximum-Head-Change  Column Row Layer    Maximum-Flux-Residual          L2-NORM 
          0                 1           2             6    4     1       0.1751351174E-02       6    4    1         0.9185865092E-01      0.3614455561E+00
          0                 2           2             6    4     1      -0.1703595691E-03       6    4    1        -0.9185870526E-02      0.3777113613E-01
          0                 3           1             4    7     1      -0.3138303732E-04       4    7    1        -0.1666197434E-02      0.3623755748E-02

    ------------------------------------------------
       NWT REQUIRED            3 OUTER ITERATIONS 
       AND A TOTAL OF          5 INNER ITERATIONS.
    ------------------------------------------------

 NO OUTPUT CONTROL FOR STRESS PERIOD   25   TIME STEP   24
 
 SOLVING FOR HEAD 
                                                   Max.-Head-Change                         Max.-Flux-Residual
  Residual-Control   Outer-Iter.   Inner-Iter.     Column Row Layer    Maximum-Head-Change  Column Row Layer    Maximum-Flux-Residual          L2-NORM 
          0                 1           2             6    4     1       0.1734424711E-02       6    4    1         0.9096346181E-01      0.3594199332E+00
          0                 2           2             6    4     1      -0.1687130519E-03       6    4    1        -0.9096351478E-02      0.3748167047E-01
          0                 3           1             4    7     1      -0.3050949073E-04       4    7    1        -0.1619914765E-02      0.3558281922E-02

    ------------------------------------------------
       NWT REQUIRED            3 OUTER ITERATIONS 
       AND A TOTAL OF          5 INNER ITERATIONS.
    ------------------------------------------------

 NO OUTPUT CONTROL FOR STRESS PERIOD   25   TIME STEP   25
 
 SOLVING FOR HEAD 
                                                   Max.-Head-Change                         Max.-Flux-Residual
  Residual-Control   Outer-Iter.   Inner-Iter.     Column Row Layer    Maximum-Head-Change  Column Row Layer    Maximum-Flux-Residual          L2-NORM 
          0                 1           2             5    3     1       0.1719575494E-02       6    4    1         0.9008584452E-01      0.3574427318E+00
          0                 2           2             5    3     1      -0.1672680231E-03       6    4    1        -0.9008589606E-02      0.3720094899E-01
          0                 3           1             4    7     1      -0.2965806897E-04       4    7    1        -0.1574834791E-02      0.3494754602E-02

    ------------------------------------------------
       NWT REQUIRED            3 OUTER ITERATIONS 
       AND A TOTAL OF          5 INNER ITERATIONS.
    ------------------------------------------------

 NO OUTPUT CONTROL FOR STRESS PERIOD   25   TIME STEP   26
 
 SOLVING FOR HEAD 
                                                   Max.-Head-Change                         Max.-Flux-Residual
  Residual-Control   Outer-Iter.   Inner-Iter.     Column Row Layer    Maximum-Head-Change  Column Row Layer    Maximum-Flux-Residual          L2-NORM 
          0                 1           2             5    3     1       0.1709808126E-02       6    4    1         0.8922559253E-01      0.3554954064E+00
          0                 2           2             5    3     1      -0.1663179176E-03       6    4    1        -0.8922564291E-02      0.3692591335E-01
          0                 3           1             4    7     1      -0.2882764979E-04       4    7    1        -0.1530892692E-02      0.3432654356E-02

    ------------------------------------------------
       NWT REQUIRED            3 OUTER ITERATIONS 
       AND A TOTAL OF          5 INNER ITERATIONS.
    ------------------------------------------------

 NO OUTPUT CONTROL FOR STRESS PERIOD   25   TIME STEP   27
 
 SOLVING FOR HEAD 
                                                   Max.-Head-Change                         Max.-Flux-Residual
  Residual-Control   Outer-Iter.   Inner-Iter.     Column Row Layer    Maximum-Head-Change  Column Row Layer    Maximum-Flux-Residual          L2-NORM 
          0                 1           2             5    3     1       0.1699688858E-02       6    4    1         0.8838228698E-01      0.3535857921E+00
          0                 2           2             5    3     1      -0.1653335818E-03       6    4    1        -0.8838233586E-02      0.3665802240E-01
          0                 3           1             4    7     1      -0.2801786401E-04       4    7    1        -0.1488055555E-02      0.3372391210E-02

    ------------------------------------------------
       NWT REQUIRED            3 OUTER ITERATIONS 
       AND A TOTAL OF          5 INNER ITERATIONS.
    ------------------------------------------------

 NO OUTPUT CONTROL FOR STRESS PERIOD   25   TIME STEP   28
 
 SOLVING FOR HEAD 
                                                   Max.-Head-Change                         Max.-Flux-Residual
  Residual-Control   Outer-Iter.   Inner-Iter.     Column Row Layer    Maximum-Head-Change  Column Row Layer    Maximum-Flux-Residual          L2-NORM 
          0                 1           2             5    3     1       0.1690145620E-02       6    4    1         0.8754344509E-01      0.3517135891E+00
          0                 2           2             5    3     1      -0.1644052783E-03       6    4    1        -0.8754349262E-02      0.3639718158E-01
          0                 3           1             4    7     1      -0.2722782150E-04       4    7    1        -0.1446275639E-02      0.3313910304E-02

    ------------------------------------------------
       NWT REQUIRED            3 OUTER ITERATIONS 
       AND A TOTAL OF          5 INNER ITERATIONS.
    ------------------------------------------------

 NO OUTPUT CONTROL FOR STRESS PERIOD   25   TIME STEP   29
 
 SOLVING FOR HEAD 
                                                   Max.-Head-Change                         Max.-Flux-Residual
  Residual-Control   Outer-Iter.   Inner-Iter.     Column Row Layer    Maximum-Head-Change  Column Row Layer    Maximum-Flux-Residual          L2-NORM 
          0                 1           2             5    3     1       0.1680605995E-02       6    4    1         0.8673338723E-01      0.3496154832E+00
          0                 2           2             5    3     1      -0.1634773260E-03       6    4    1        -0.8673343405E-02      0.3611841809E-01
          0                 3           1             4    7     1      -0.2644587534E-04       4    7    1        -0.1404914969E-02      0.3255700257E-02

    ------------------------------------------------
       NWT REQUIRED            3 OUTER ITERATIONS 
       AND A TOTAL OF          5 INNER ITERATIONS.
    ------------------------------------------------

 NO OUTPUT CONTROL FOR STRESS PERIOD   25   TIME STEP   30



 STREAM LISTING     PERIOD     25   STEP       30

 LAYER ROW COL. STREAM  RCH.  FLOW INTO     FLOW TO   FLOW OUT OF   OVRLND.     DIRECT     STREAM       STREAM     STREAM     STREAM   STREAMBED  STREAMBED
                SEG.NO.  NO.  STRM. RCH.    AQUIFER    STRM. RCH.    RUNOFF     PRECIP       ET          HEAD       DEPTH      WIDTH   CONDCTNC.   GRADIENT

   1    1    1     1     1    1.4942E+01  1.8668E-01   1.4756E+01  0.000E+00  0.000E+00  0.000E+00  1.09406E+03  1.009E+00  1.035E+01  4.656E-02  1.336E+00
   1    2    2     1     2    1.4756E+01  2.8774E-01   1.4468E+01  0.000E+00  0.000E+00  0.000E+00  1.08906E+03  1.004E+00  1.027E+01  7.186E-02  1.335E+00
   1    3    3     1     3    1.4468E+01  2.4407E-01   1.4224E+01  0.000E+00  0.000E+00  0.000E+00  1.08342E+03  9.991E-01  1.017E+01  6.103E-02  1.333E+00
   1    3    4     1     4    1.4224E+01  2.2366E-01   1.4000E+01  0.000E+00  0.000E+00  0.000E+00  1.07840E+03  9.944E-01  1.009E+01  5.599E-02  1.331E+00
   1    4    5     2     1    1.2000E+01  2.9419E-01   1.1706E+01  0.000E+00  0.000E+00  0.000E+00  1.07271E+03  7.717E-01  1.200E+01  7.800E-02  1.257E+00
   1    5    6     2     2    1.1706E+01  2.2569E-01   1.1480E+01  0.000E+00  0.000E+00  0.000E+00  1.06727E+03  7.615E-01  1.200E+01  6.000E-02  1.254E+00
   1    6    6     2     3    1.1480E+01  2.2515E-01   1.1255E+01  0.000E+00  0.000E+00  0.000E+00  1.06255E+03  7.526E-01  1.200E+01  6.000E-02  1.251E+00
   1    7    6     2     4    1.1255E+01  2.2462E-01   1.1031E+01  0.000E+00  0.000E+00  0.000E+00  1.05782E+03  7.436E-01  1.200E+01  6.000E-02  1.248E+00
   1    8    6     2     5    1.1031E+01  2.2408E-01   1.0807E+01  0.000E+00  0.000E+00  0.000E+00  1.05309E+03  7.346E-01  1.200E+01  6.000E-02  1.245E+00
   1    3    5     3     1    2.0000E+00  2.8252E-01   1.7175E+00  0.000E+00  0.000E+00  0.000E+00  1.07555E+03  1.909E+00  9.636E+00  7.227E-02  1.955E+00
   1    3    6     3     2    1.7175E+00  2.4905E-01   1.4684E+00  0.000E+00  0.000E+00  0.000E+00  1.07264E+03  1.727E+00  8.909E+00  6.682E-02  1.864E+00
   1    3    7     3     3    1.4684E+00  1.9718E-01   1.2712E+00  0.000E+00  0.000E+00  0.000E+00  1.06987E+03  1.555E+00  8.218E+00  5.547E-02  1.777E+00
   1    4    8     3     4    1.2712E+00  2.2567E-01   1.0456E+00  0.000E+00  0.000E+00  0.000E+00  1.06682E+03  1.364E+00  7.455E+00  6.709E-02  1.682E+00
   1    5    8     3     5    1.0456E+00  1.5790E-01   8.8768E-01  0.000E+00  0.000E+00  0.000E+00  1.06362E+03  1.164E+00  6.655E+00  4.991E-02  1.582E+00
   1    6    8     3     6    8.8768E-01  5.5980E-02   8.3170E-01  0.000E+00  0.000E+00  0.000E+00  1.06158E+03  1.036E+00  6.145E+00  1.844E-02  1.518E+00
   1    5   10     4     1    1.0000E+01  9.0919E-02   9.9091E+00  0.000E+00  0.000E+00  0.000E+00  1.07836E+03  6.368E-01  1.000E+01  2.500E-02  1.212E+00
   1    5    9     4     2    9.9091E+00  1.8158E-01   9.7275E+00  0.000E+00  0.000E+00  0.000E+00  1.07154E+03  6.315E-01  1.000E+01  5.000E-02  1.211E+00
   1    6    8     4     3    9.7275E+00  1.2689E-01   9.6006E+00  0.000E+00  0.000E+00  0.000E+00  1.06381E+03  6.256E-01  1.000E+01  3.500E-02  1.209E+00
   1    6    8     5     1    1.0432E+01  2.2686E-01   1.0205E+01  0.000E+00  0.000E+00  0.000E+00  1.05868E+03  6.790E-01  1.542E+01  6.166E-02  1.226E+00
   1    7    7     5     2    1.0205E+01  2.7894E-01   9.9265E+00  0.000E+00  0.000E+00  0.000E+00  1.05417E+03  6.732E-01  1.519E+01  7.594E-02  1.224E+00
   1    8    7     5     3    9.9265E+00  1.9221E-01   9.7343E+00  0.000E+00  0.000E+00  0.000E+00  1.04992E+03  6.676E-01  1.497E+01  5.241E-02  1.223E+00
   1    8    6     5     4    9.7343E+00  1.3577E-01   9.5985E+00  0.000E+00  0.000E+00  0.000E+00  1.04691E+03  6.637E-01  1.482E+01  3.706E-02  1.221E+00
   1    9    6     6     1    2.0405E+01  2.4462E-01   2.0161E+01  0.000E+00  0.000E+00  0.000E+00  1.04380E+03  1.077E+00  1.200E+01  6.000E-02  1.359E+00
   1   10    7     6     2    2.0161E+01  2.4416E-01   1.9916E+01  0.000E+00  0.000E+00  0.000E+00  1.03925E+03  1.069E+00  1.200E+01  6.000E-02  1.356E+00
   1   11    7     6     3    1.9916E+01  2.4369E-01   1.9673E+01  0.000E+00  0.000E+00  0.000E+00  1.03470E+03  1.061E+00  1.200E+01  6.000E-02  1.354E+00
   1   12    7     6     4    1.9673E+01  2.4322E-01   1.9429E+01  0.000E+00  0.000E+00  0.000E+00  1.03014E+03  1.054E+00  1.200E+01  6.000E-02  1.351E+00
   1   13    7     6     5    1.9429E+01 -1.1570E-02   1.9441E+01  0.000E+00  0.000E+00  0.000E+00  1.02696E+03  1.050E+00  1.200E+01  2.400E-01 -1.607E-02
   1   14    9     7     1    1.5000E+02  1.3463E+00   1.4865E+02  0.000E+00  0.000E+00  0.000E+00  1.03987E+03  2.288E+00  5.529E+01  5.593E-01  8.024E-01
   1   13    8     7     2    1.4865E+02  1.8615E+00   1.4679E+02  0.000E+00  0.000E+00  0.000E+00  1.03478E+03  2.279E+00  5.526E+01  6.148E-01  1.009E+00
   1   13    7     7     3    1.4679E+02  1.4980E+00   1.4529E+02  0.000E+00  0.000E+00  0.000E+00  1.02969E+03  2.270E+00  5.522E+01  5.584E-01  8.941E-01
   1   13    6     8     1    1.6474E+02  9.1369E-01   1.6382E+02  0.000E+00  0.000E+00  0.000E+00  1.02479E+03  2.915E+00  4.226E+01  4.307E-01  7.072E-01
   1   13    5     8     2    1.6382E+02  1.6408E-01   1.6366E+02  0.000E+00  0.000E+00  0.000E+00  1.01854E+03  2.911E+00  4.221E+01  4.301E-01  1.272E-01
   1   13    4     8     3    1.6366E+02 -2.4930E+00   1.6615E+02  0.000E+00  0.000E+00  0.000E+00  1.01229E+03  2.919E+00  4.232E+01  4.313E+00 -1.927E-01
   1   13    3     8     4    1.6615E+02 -3.6582E+00   1.6981E+02  0.000E+00  0.000E+00  0.000E+00  1.00606E+03  2.939E+00  4.262E+01  4.343E+00 -2.808E-01
   1   13    2     8     5    1.6981E+02 -2.5721E+00   1.7238E+02  0.000E+00  0.000E+00  0.000E+00  9.99834E+02  2.959E+00  4.291E+01  4.373E+00 -1.961E-01
   1   13    1     8     6    1.7238E+02 -1.9764E+00   1.7436E+02  0.000E+00  0.000E+00  0.000E+00  9.94849E+02  2.974E+00  4.312E+01  2.637E+00 -2.499E-01
   1    8    6     9     1    0.0000E+00  0.0000E+00   0.0000E+00  0.000E+00  0.000E+00  0.000E+00  1.07875E+03  0.000E+00  4.000E+00  0.000E+00  1.000E+00
   1    8    5     9     2    0.0000E+00  0.0000E+00   0.0000E+00  0.000E+00  0.000E+00  0.000E+00  1.07825E+03  0.000E+00  4.000E+00  0.000E+00  1.000E+00





UNSATURATED ZONE PACKAGE VOLUMETRIC BUDGET FOR  TIME STEP    30 STRESS PERIOD   25
  ------------------------------------------------------------------------------



     CUMULATIVE VOLUMES      L**3       RATES FOR THIS TIME STEP      L**3/T
     ------------------                 ------------------------

           IN:                                      IN:
           ---                                      ---
        INFILTRATION =  2825480680.7406          INFILTRATION =           0.8475

          OUT:                                     OUT:
          ----                                     ----
              UZF ET =   864562714.7860                UZF ET =           0.7500
        UZF RECHARGE =  1608101842.6528          UZF RECHARGE =           1.3001

            IN - OUT =   352816123.3017              IN - OUT =          -1.2026

          STORAGE:                                 STORAGE:
          --------                                 --------
      STORAGE CHANGE =   352812748.4290        STORAGE CHANGE =          -1.2026

 PERCENT DISCREPANCY IS DIFFERENCE BETWEEN IN-OUT MINUS CHANGE IN STORAGE
 DIVIDED BY THE AVERAGE OF IN AND OUT TIMES 100

 PERCENT DISCREPANCY =           0.00     PERCENT DISCREPANCY =           0.00






1
  VOLUMETRIC BUDGET FOR AGRICULTURAL FIELDS AT  END OF TIME STEP   30, STRESS PERIOD  25
  ------------------------------------------------------------------------------

     CUMULATIVE VOLUMES      L**3       RATES FOR THIS TIME STEP      L**3/T
     ------------------                 ------------------------

           IN:                                      IN:
           ---                                      ---
           AG WELLS      =  1742828032.0000             AG WELLS      =           0.0000
      DIVERSION SEGMENTS =  1029065024.0000        DIVERSION SEGMENTS =           0.0000
           GW IRRIGATION =           0.0000             GW IRRIGATION =           0.0000
           SW IRRIGATION =           0.0000             SW IRRIGATION =           0.0000
        SYSTEM LOSSES GW =           0.0000          SYSTEM LOSSES GW =           0.0000
        SYSTEM LOSSES SW =           0.0000          SYSTEM LOSSES SW =           0.0000

                TOTAL IN =  2771892992.0000                  TOTAL IN =           0.0000

          OUT:                                     OUT:
          ----                                     ----
           AG WELLS      =           0.0000             AG WELLS      =           0.0000
      DIVERSION SEGMENTS =           0.0000        DIVERSION SEGMENTS =           0.0000
           GW IRRIGATION =  1742828032.0000             GW IRRIGATION =           0.0000
           SW IRRIGATION =  1029085184.0000             SW IRRIGATION =           0.0000
        SYSTEM LOSSES GW =           0.0000          SYSTEM LOSSES GW =           0.0000
        SYSTEM LOSSES SW =           0.0000          SYSTEM LOSSES SW =           0.0000

               TOTAL OUT =  2771913216.0000                 TOTAL OUT =           0.0000

                IN - OUT =      -20224.0000                  IN - OUT =           0.0000

     PERCENT DISCREPANCY =          -0.00         PERCENT DISCREPANCY =           0.00



1
  VOLUMETRIC BUDGET FOR ENTIRE MODEL AT END OF TIME STEP   30, STRESS PERIOD  25
  ------------------------------------------------------------------------------

     CUMULATIVE VOLUMES      L**3       RATES FOR THIS TIME STEP      L**3/T
     ------------------                 ------------------------

           IN:                                      IN:
           ---                                      ---
             STORAGE     =  1767909632.0000               STORAGE     =           0.5088
       CONSTANT HEAD     =           0.0000         CONSTANT HEAD     =           0.0000
     HEAD DEP BOUNDS     =    18076134.0000       HEAD DEP BOUNDS     =           0.2865
      STREAM LEAKAGE     =   752540032.0000        STREAM LEAKAGE     =          11.2966
        UZF RECHARGE     =  1608101632.0000          UZF RECHARGE     =           1.3001
               GW ET     =           0.0000                 GW ET     =           0.0000
     SURFACE LEAKAGE     =           0.0000       SURFACE LEAKAGE     =           0.0000
           AG WELLS      =           0.0000             AG WELLS      =           0.0000

                TOTAL IN =  4146627328.0000                  TOTAL IN =          13.3920

          OUT:                                     OUT:
          ----                                     ----
             STORAGE     =  1705011200.0000               STORAGE     =           2.3935
       CONSTANT HEAD     =           0.0000         CONSTANT HEAD     =           0.0000
     HEAD DEP BOUNDS     =    18290518.0000       HEAD DEP BOUNDS     =           0.2887
      STREAM LEAKAGE     =   680425856.0000        STREAM LEAKAGE     =          10.7113
        UZF RECHARGE     =           0.0000          UZF RECHARGE     =           0.0000
               GW ET     =      106432.0312                 GW ET     =           0.0000
     SURFACE LEAKAGE     =           0.0000       SURFACE LEAKAGE     =           0.0000
           AG WELLS      =  1742828032.0000             AG WELLS      =           0.0000

               TOTAL OUT =  4146662144.0000                 TOTAL OUT =          13.3936

                IN - OUT =      -34816.0000                  IN - OUT =      -1.5926E-03

     PERCENT DISCREPANCY =          -0.00         PERCENT DISCREPANCY =          -0.01






         TIME SUMMARY AT END OF TIME STEP   30 IN STRESS PERIOD   25
                    SECONDS     MINUTES      HOURS       DAYS        YEARS
                    -----------------------------------------------------------
   TIME STEP LENGTH  87667.      1461.1      24.352      1.0147     2.77799E-03
 STRESS PERIOD TIME 2.63000E+06  43833.      730.56      30.440     8.33397E-02
         TOTAL TIME 6.32067E+07 1.05345E+06  17557.      731.56      2.0029    
1
1
                            STRESS PERIOD NO.   26, LENGTH =   2630000.    
                            -----------------------------------------------

                              NUMBER OF TIME STEPS =    30

                               MULTIPLIER FOR DELT =     1.000

                            INITIAL TIME STEP SIZE =   87666.66    

 REUSING NON-PARAMETER GHB CELLS FROM LAST STRESS PERIOD

      2 GHB CELLS

 REUSING STREAM SEGMENT DATA FROM LAST STRESS PERIOD



            AREAL INFILTRATION RATE
 READING ON UNIT   19 WITH FORMAT: (FREE)              

            1           2           3           4           5           6           7           8           9          10
 ........................................................................................................................
   1   1.0000E-10  2.0000E-10   0.000       0.000       0.000       0.000       0.000       0.000       0.000       0.000    
   2   2.0000E-10  1.0000E-10  2.0000E-10   0.000       0.000      8.0000E-10  8.0000E-10  5.0000E-10   0.000       0.000    
   3    0.000      5.0000E-10  1.0000E-10  1.0000E-10  8.0000E-10  8.0000E-10  5.0000E-10  5.0000E-10   0.000       0.000    
   4   8.0000E-10  5.0000E-10  1.0000E-10  1.0000E-10  1.0000E-10  1.0000E-10  1.0000E-10  1.0000E-10  2.0000E-10   0.000    
   5   8.0000E-10  5.0000E-10  1.0000E-10  1.0000E-10  1.0000E-10  1.0000E-10  1.0000E-10  1.0000E-10  1.0000E-10  1.0000E-10
   6   8.0000E-10  5.0000E-10  5.0000E-10  2.0000E-10  2.0000E-10  1.0000E-10  1.0000E-10  1.0000E-10  1.0000E-10  5.0000E-10
   7   8.0000E-10  5.0000E-10  5.0000E-10  2.0000E-10  2.0000E-10  1.0000E-10  1.0000E-10  2.0000E-10  2.0000E-10   0.000    
   8    0.000      5.0000E-10  5.0000E-10  2.0000E-10  2.0000E-10  1.0000E-10  1.0000E-10  2.0000E-10  5.0000E-10   0.000    
   9    0.000      5.0000E-10  5.0000E-10  2.0000E-10  2.0000E-10  1.0000E-10  1.0000E-10  2.0000E-10  5.0000E-10   0.000    
  10    0.000      5.0000E-10  5.0000E-10  2.0000E-10  2.0000E-10  1.0000E-10  1.0000E-10  2.0000E-10  5.0000E-10  8.0000E-10
  11    0.000      1.0000E-10  1.0000E-10  1.0000E-10  1.0000E-10  1.0000E-10  1.0000E-10  2.0000E-10  5.0000E-10   0.000    
  12   1.0000E-10  1.0000E-10  1.0000E-10  1.0000E-10  1.0000E-10  1.0000E-10  1.0000E-10  1.0000E-10  2.0000E-10   0.000    
  13   1.0000E-10  1.0000E-10  2.0000E-10  2.0000E-10  2.0000E-10  2.0000E-10  2.0000E-10  1.0000E-10  1.0000E-10   0.000    
  14    0.000      2.0000E-10  5.0000E-10  5.0000E-10  5.0000E-10  5.0000E-10  5.0000E-10  2.0000E-10  1.0000E-10   0.000    
  15    0.000       0.000      8.0000E-10  8.0000E-10  8.0000E-10  8.0000E-10   0.000       0.000       0.000       0.000    

                  ET RATE =  5.000000E-10

 USING ET EXTINCTION DEPTH FROM PREVIOUS STRESS PERIOD. CURRENT PERIOD IS:      26

 USING EXTINCTION WATER CONTENT FROM PREVIOUS STRESS PERIOD. CURRENT PERIOD IS:      26

 USING AIR ENTRY PRESSURE FROM PREVIOUS STRESS PERIOD. CURRENT PERIOD IS:      26

 USING ROOT PRESSURE HEAD FROM PREVIOUS STRESS PERIOD. CURRENT PERIOD IS:      26

 USING ROOT ACTIVITY FROM PREVIOUS STRESS PERIOD. CURRENT PERIOD IS:      26

 PROCESSING AG STRESS PERIOD DATA

 READING AG STRESS PERIOD DATA

 READING IRRIGATION SEGMENT

 READING IRRIGATION WELL

 READING SUPPLEMENTAL WELL

 END PROCESSING AG STRESS PERIOD DATA OPTIONS
 
 SOLVING FOR HEAD 
                                                   Max.-Head-Change                         Max.-Flux-Residual
  Residual-Control   Outer-Iter.   Inner-Iter.     Column Row Layer    Maximum-Head-Change  Column Row Layer    Maximum-Flux-Residual          L2-NORM 
          0                 1           2             5    3     1       0.1669491438E-02       6    4    1         0.8592362875E-01      0.3458774536E+00
          0                 2           2             5    3     1      -0.1623961815E-03       6    4    1        -0.8592367549E-02      0.3568044324E-01
          0                 3           1             4    7     1      -0.2568412989E-04       4    7    1        -0.1364618118E-02      0.3190345422E-02

    ------------------------------------------------
       NWT REQUIRED            3 OUTER ITERATIONS 
       AND A TOTAL OF          5 INNER ITERATIONS.
    ------------------------------------------------

 NO OUTPUT CONTROL FOR STRESS PERIOD   26   TIME STEP    1
 
 SOLVING FOR HEAD 
                                                   Max.-Head-Change                         Max.-Flux-Residual
  Residual-Control   Outer-Iter.   Inner-Iter.     Column Row Layer    Maximum-Head-Change  Column Row Layer    Maximum-Flux-Residual          L2-NORM 
          0                 1           2             5    3     1       0.1662204439E-02       6    4    1         0.8508705800E-01      0.3575971891E+00
          0                 2           2             5    3     1      -0.1616873335E-03       6    4    1        -0.8508709917E-02      0.3672389428E-01
          0                 3           1             4    7     1      -0.2493727706E-04       4    7    1        -0.1325168005E-02      0.3205972697E-02

    ------------------------------------------------
       NWT REQUIRED            3 OUTER ITERATIONS 
       AND A TOTAL OF          5 INNER ITERATIONS.
    ------------------------------------------------

 NO OUTPUT CONTROL FOR STRESS PERIOD   26   TIME STEP    2
 
 SOLVING FOR HEAD 
                                                   Max.-Head-Change                         Max.-Flux-Residual
  Residual-Control   Outer-Iter.   Inner-Iter.     Column Row Layer    Maximum-Head-Change  Column Row Layer    Maximum-Flux-Residual          L2-NORM 
          0                 1           2             5    3     1       0.1655626678E-02       6    4    1         0.8439824317E-01      0.3570110029E+00
          0                 2           2             5    3     1      -0.1610474892E-03       6    4    1        -0.8439828308E-02      0.3659872794E-01
          0                 3           1             4    7     1      -0.2420503921E-04       4    7    1        -0.1286523896E-02      0.3159804294E-02

    ------------------------------------------------
       NWT REQUIRED            3 OUTER ITERATIONS 
       AND A TOTAL OF          5 INNER ITERATIONS.
    ------------------------------------------------

 NO OUTPUT CONTROL FOR STRESS PERIOD   26   TIME STEP    3
 
 SOLVING FOR HEAD 
                                                   Max.-Head-Change                         Max.-Flux-Residual
  Residual-Control   Outer-Iter.   Inner-Iter.     Column Row Layer    Maximum-Head-Change  Column Row Layer    Maximum-Flux-Residual          L2-NORM 
          0                 1           2             5    3     1       0.1648584312E-02       6    4    1         0.8372709013E-01      0.3547979455E+00
          0                 2           2             5    3     1      -0.1603624536E-03       6    4    1        -0.8372712934E-02      0.3632334278E-01
          0                 3           1             4    7     1      -0.2348968361E-04       4    7    1        -0.1248760637E-02      0.3106831601E-02

    ------------------------------------------------
       NWT REQUIRED            3 OUTER ITERATIONS 
       AND A TOTAL OF          5 INNER ITERATIONS.
    ------------------------------------------------

 NO OUTPUT CONTROL FOR STRESS PERIOD   26   TIME STEP    4
 
 SOLVING FOR HEAD 
                                                   Max.-Head-Change                         Max.-Flux-Residual
  Residual-Control   Outer-Iter.   Inner-Iter.     Column Row Layer    Maximum-Head-Change  Column Row Layer    Maximum-Flux-Residual          L2-NORM 
          0                 1           2             5    3     1       0.1641546523E-02       6    4    1         0.8306476801E-01      0.3526847809E+00
          0                 2           2             5    3     1      -0.1596778625E-03       6    4    1        -0.8306480649E-02      0.3605972332E-01
          0                 3           1             4    7     1      -0.2277812719E-04       4    7    1        -0.1211193054E-02      0.3055820284E-02

    ------------------------------------------------
       NWT REQUIRED            3 OUTER ITERATIONS 
       AND A TOTAL OF          5 INNER ITERATIONS.
    ------------------------------------------------

 NO OUTPUT CONTROL FOR STRESS PERIOD   26   TIME STEP    5
 
 SOLVING FOR HEAD 
                                                   Max.-Head-Change                         Max.-Flux-Residual
  Residual-Control   Outer-Iter.   Inner-Iter.     Column Row Layer    Maximum-Head-Change  Column Row Layer    Maximum-Flux-Residual          L2-NORM 
          0                 1           2             5    3     1       0.1634976190E-02       6    4    1         0.8241133169E-01      0.3506852778E+00
          0                 2           2             5    3     1      -0.1590387435E-03       6    4    1        -0.8241136928E-02      0.3580845981E-01
          0                 3           1             4    7     1      -0.2209249404E-04       4    7    1        -0.1175026214E-02      0.3006889247E-02

    ------------------------------------------------
       NWT REQUIRED            3 OUTER ITERATIONS 
       AND A TOTAL OF          5 INNER ITERATIONS.
    ------------------------------------------------

 NO OUTPUT CONTROL FOR STRESS PERIOD   26   TIME STEP    6
 
 SOLVING FOR HEAD 
                                                   Max.-Head-Change                         Max.-Flux-Residual
  Residual-Control   Outer-Iter.   Inner-Iter.     Column Row Layer    Maximum-Head-Change  Column Row Layer    Maximum-Flux-Residual          L2-NORM 
          0                 1           2             5    3     1       0.1627951992E-02       6    4    1         0.8176662574E-01      0.3487655888E+00
          0                 2           2             5    3     1      -0.1583554742E-03       6    4    1        -0.8176666273E-02      0.3556977255E-01
          0                 3           1             4    7     1      -0.2140997952E-04       4    7    1        -0.1139007761E-02      0.2959611260E-02

    ------------------------------------------------
       NWT REQUIRED            3 OUTER ITERATIONS 
       AND A TOTAL OF          5 INNER ITERATIONS.
    ------------------------------------------------

 NO OUTPUT CONTROL FOR STRESS PERIOD   26   TIME STEP    7
 
 SOLVING FOR HEAD 
                                                   Max.-Head-Change                         Max.-Flux-Residual
  Residual-Control   Outer-Iter.   Inner-Iter.     Column Row Layer    Maximum-Head-Change  Column Row Layer    Maximum-Flux-Residual          L2-NORM 
          0                 1           2             5    3     1       0.1620944203E-02       6    4    1         0.8111877737E-01      0.3469229938E+00
          0                 2           2             5    3     1      -0.1576738019E-03       6    4    1        -0.8111881339E-02      0.3533982675E-01
          0                 3           1             4    7     1      -0.2074240138E-04       4    7    1        -0.1103776338E-02      0.2914369739E-02

    ------------------------------------------------
       NWT REQUIRED            3 OUTER ITERATIONS 
       AND A TOTAL OF          5 INNER ITERATIONS.
    ------------------------------------------------

 NO OUTPUT CONTROL FOR STRESS PERIOD   26   TIME STEP    8
 
 SOLVING FOR HEAD 
                                                   Max.-Head-Change                         Max.-Flux-Residual
  Residual-Control   Outer-Iter.   Inner-Iter.     Column Row Layer    Maximum-Head-Change  Column Row Layer    Maximum-Flux-Residual          L2-NORM 
          0                 1           2             5    3     1       0.1613956782E-02       6    4    1         0.8049229348E-01      0.3451478284E+00
          0                 2           2             5    3     1      -0.1569941104E-03       6    4    1        -0.8049232898E-02      0.3511813594E-01
          0                 3           1             4    7     1      -0.2008710244E-04       4    7    1        -0.1069219045E-02      0.2870658360E-02

    ------------------------------------------------
       NWT REQUIRED            3 OUTER ITERATIONS 
       AND A TOTAL OF          5 INNER ITERATIONS.
    ------------------------------------------------

 NO OUTPUT CONTROL FOR STRESS PERIOD   26   TIME STEP    9
 
 SOLVING FOR HEAD 
                                                   Max.-Head-Change                         Max.-Flux-Residual
  Residual-Control   Outer-Iter.   Inner-Iter.     Column Row Layer    Maximum-Head-Change  Column Row Layer    Maximum-Flux-Residual          L2-NORM 
          0                 1           2             5    3     1       0.1606992228E-02       6    4    1         0.7986265382E-01      0.3434438306E+00
          0                 2           2             5    3     1      -0.1563166438E-03       6    4    1        -0.7986268867E-02      0.3490605722E-01
          0                 3           1             4    7     1      -0.1944577296E-04       4    7    1        -0.1035392981E-02      0.2828810504E-02

    ------------------------------------------------
       NWT REQUIRED            3 OUTER ITERATIONS 
       AND A TOTAL OF          5 INNER ITERATIONS.
    ------------------------------------------------

 NO OUTPUT CONTROL FOR STRESS PERIOD   26   TIME STEP   10
 
 SOLVING FOR HEAD 
                                                   Max.-Head-Change                         Max.-Flux-Residual
  Residual-Control   Outer-Iter.   Inner-Iter.     Column Row Layer    Maximum-Head-Change  Column Row Layer    Maximum-Flux-Residual          L2-NORM 
          0                 1           2             5    3     1       0.1600053449E-02       6    4    1         0.7925461444E-01      0.3417840963E+00
          0                 2           2             5    3     1      -0.1556416846E-03       6    4    1        -0.7925464845E-02      0.3470016096E-01
          0                 3           1             4    7     1      -0.1880570003E-04       4    7    1        -0.1001625461E-02      0.2788494876E-02

    ------------------------------------------------
       NWT REQUIRED            3 OUTER ITERATIONS 
       AND A TOTAL OF          5 INNER ITERATIONS.
    ------------------------------------------------

 NO OUTPUT CONTROL FOR STRESS PERIOD   26   TIME STEP   11
 
 SOLVING FOR HEAD 
                                                   Max.-Head-Change                         Max.-Flux-Residual
  Residual-Control   Outer-Iter.   Inner-Iter.     Column Row Layer    Maximum-Head-Change  Column Row Layer    Maximum-Flux-Residual          L2-NORM 
          0                 1           2             5    3     1       0.1593143658E-02       6    4    1         0.7864352550E-01      0.3401848649E+00
          0                 2           2             5    3     1      -0.1549695453E-03       6    4    1        -0.7864355872E-02      0.3450318315E-01
          0                 3           1             4    7     1      -0.1819114944E-04       4    7    1        -0.9692121464E-03      0.2750112176E-02

    ------------------------------------------------
       NWT REQUIRED            3 OUTER ITERATIONS 
       AND A TOTAL OF          5 INNER ITERATIONS.
    ------------------------------------------------

 NO OUTPUT CONTROL FOR STRESS PERIOD   26   TIME STEP   12
 
 SOLVING FOR HEAD 
                                                   Max.-Head-Change                         Max.-Flux-Residual
  Residual-Control   Outer-Iter.   Inner-Iter.     Column Row Layer    Maximum-Head-Change  Column Row Layer    Maximum-Flux-Residual          L2-NORM 
          0                 1           2             5    3     1       0.1586264680E-02       6    4    1         0.7804194579E-01      0.3386308831E+00
          0                 2           2             5    3     1      -0.1543004034E-03       6    4    1        -0.7804197845E-02      0.3431222222E-01
          0                 3           1             4    7     1      -0.1757673565E-04       4    7    1        -0.9368042499E-03      0.2713259703E-02

    ------------------------------------------------
       NWT REQUIRED            3 OUTER ITERATIONS 
       AND A TOTAL OF          5 INNER ITERATIONS.
    ------------------------------------------------

 NO OUTPUT CONTROL FOR STRESS PERIOD   26   TIME STEP   13
 
 SOLVING FOR HEAD 
                                                   Max.-Head-Change                         Max.-Flux-Residual
  Residual-Control   Outer-Iter.   Inner-Iter.     Column Row Layer    Maximum-Head-Change  Column Row Layer    Maximum-Flux-Residual          L2-NORM 
          0                 1           2             5    3     1       0.1579415593E-02       6    4    1         0.7744986499E-01      0.3371101741E+00
          0                 2           2             5    3     1      -0.1536341690E-03       6    4    1        -0.7744989708E-02      0.3412642307E-01
          0                 3           1             4    7     1      -0.1697424141E-04       4    7    1        -0.9050349756E-03      0.2677693746E-02

    ------------------------------------------------
       NWT REQUIRED            3 OUTER ITERATIONS 
       AND A TOTAL OF          5 INNER ITERATIONS.
    ------------------------------------------------

 NO OUTPUT CONTROL FOR STRESS PERIOD   26   TIME STEP   14
 
 SOLVING FOR HEAD 
                                                   Max.-Head-Change                         Max.-Flux-Residual
  Residual-Control   Outer-Iter.   Inner-Iter.     Column Row Layer    Maximum-Head-Change  Column Row Layer    Maximum-Flux-Residual          L2-NORM 
          0                 1           2             5    3     1       0.1572143818E-02       6    4    1         0.7686706118E-01      0.3356388384E+00
          0                 2           2             5    3     1      -0.1529268184E-03       6    4    1        -0.7686709264E-02      0.3394782151E-01
          0                 3           1             4    7     1      -0.1638425822E-04       4    7    1        -0.8739217387E-03      0.2643951023E-02

    ------------------------------------------------
       NWT REQUIRED            3 OUTER ITERATIONS 
       AND A TOTAL OF          5 INNER ITERATIONS.
    ------------------------------------------------

 NO OUTPUT CONTROL FOR STRESS PERIOD   26   TIME STEP   15
 
 SOLVING FOR HEAD 
                                                   Max.-Head-Change                         Max.-Flux-Residual
  Residual-Control   Outer-Iter.   Inner-Iter.     Column Row Layer    Maximum-Head-Change  Column Row Layer    Maximum-Flux-Residual          L2-NORM 
          0                 1           2             5    3     1       0.1565376563E-02       6    4    1         0.7629357555E-01      0.3342048649E+00
          0                 2           2             5    3     1      -0.1522685442E-03       6    4    1        -0.7629360618E-02      0.3377465386E-01
          0                 3           1             4    7     1      -0.1580561832E-04       4    7    1        -0.8434143929E-03      0.2611550629E-02

    ------------------------------------------------
       NWT REQUIRED            3 OUTER ITERATIONS 
       AND A TOTAL OF          5 INNER ITERATIONS.
    ------------------------------------------------

 NO OUTPUT CONTROL FOR STRESS PERIOD   26   TIME STEP   16
 
 SOLVING FOR HEAD 
                                                   Max.-Head-Change                         Max.-Flux-Residual
  Residual-Control   Outer-Iter.   Inner-Iter.     Column Row Layer    Maximum-Head-Change  Column Row Layer    Maximum-Flux-Residual          L2-NORM 
          0                 1           2             5    3     1       0.1558644964E-02       6    4    1         0.7572956221E-01      0.3328032799E+00
          0                 2           2             5    3     1      -0.1516137379E-03       6    4    1        -0.7572959218E-02      0.3360675466E-01
          0                 3           1             4    7     1      -0.1523757162E-04       4    7    1        -0.8134768807E-03      0.2580707908E-02

    ------------------------------------------------
       NWT REQUIRED            3 OUTER ITERATIONS 
       AND A TOTAL OF          5 INNER ITERATIONS.
    ------------------------------------------------

 NO OUTPUT CONTROL FOR STRESS PERIOD   26   TIME STEP   17
 
 SOLVING FOR HEAD 
                                                   Max.-Head-Change                         Max.-Flux-Residual
  Residual-Control   Outer-Iter.   Inner-Iter.     Column Row Layer    Maximum-Head-Change  Column Row Layer    Maximum-Flux-Residual          L2-NORM 
          0                 1           2             5    3     1       0.1551495918E-02       6    4    1         0.7517474824E-01      0.3314326389E+00
          0                 2           2             5    3     1      -0.1509183267E-03       6    4    1        -0.7517477765E-02      0.3344366689E-01
          0                 3           1             4    7     1      -0.1468063160E-04       4    7    1        -0.7841227532E-03      0.2551315646E-02

    ------------------------------------------------
       NWT REQUIRED            3 OUTER ITERATIONS 
       AND A TOTAL OF          5 INNER ITERATIONS.
    ------------------------------------------------

 NO OUTPUT CONTROL FOR STRESS PERIOD   26   TIME STEP   18
 
 SOLVING FOR HEAD 
                                                   Max.-Head-Change                         Max.-Flux-Residual
  Residual-Control   Outer-Iter.   Inner-Iter.     Column Row Layer    Maximum-Head-Change  Column Row Layer    Maximum-Flux-Residual          L2-NORM 
          0                 1           2             5    3     1       0.1544854299E-02       6    4    1         0.7462930237E-01      0.3300944411E+00
          0                 2           2             5    3     1      -0.1502722849E-03       6    4    1        -0.7462933128E-02      0.3328784680E-01
          0                 3           1             4    7     1      -0.1412309832E-04       4    7    1        -0.7547225955E-03      0.2523360603E-02

    ------------------------------------------------
       NWT REQUIRED            3 OUTER ITERATIONS 
       AND A TOTAL OF          5 INNER ITERATIONS.
    ------------------------------------------------

 NO OUTPUT CONTROL FOR STRESS PERIOD   26   TIME STEP   19
 
 SOLVING FOR HEAD 
                                                   Max.-Head-Change                         Max.-Flux-Residual
  Residual-Control   Outer-Iter.   Inner-Iter.     Column Row Layer    Maximum-Head-Change  Column Row Layer    Maximum-Flux-Residual          L2-NORM 
          0                 1           2             5    3     1       0.1538254721E-02       6    4    1         0.7408065900E-01      0.3287848998E+00
          0                 2           2             5    3     1      -0.1496303099E-03       6    4    1        -0.7408068729E-02      0.3313214508E-01
          0                 3           1             4    7     1      -0.1357687831E-04       4    7    1        -0.7259178740E-03      0.2496633181E-02

    ------------------------------------------------
       NWT REQUIRED            3 OUTER ITERATIONS 
       AND A TOTAL OF          5 INNER ITERATIONS.
    ------------------------------------------------

 NO OUTPUT CONTROL FOR STRESS PERIOD   26   TIME STEP   20
 
 SOLVING FOR HEAD 
                                                   Max.-Head-Change                         Max.-Flux-Residual
  Residual-Control   Outer-Iter.   Inner-Iter.     Column Row Layer    Maximum-Head-Change  Column Row Layer    Maximum-Flux-Residual          L2-NORM 
          0                 1           2             5    3     1       0.1531239726E-02       6    4    1         0.7355371833E-01      0.3275022937E+00
          0                 2           2             5    3     1      -0.1489479374E-03       6    4    1        -0.7355374584E-02      0.3298321248E-01
          0                 3           1             4    7     1      -0.1305233117E-04       4    7    1        -0.6982795580E-03      0.2471568927E-02

    ------------------------------------------------
       NWT REQUIRED            3 OUTER ITERATIONS 
       AND A TOTAL OF          5 INNER ITERATIONS.
    ------------------------------------------------

 NO OUTPUT CONTROL FOR STRESS PERIOD   26   TIME STEP   21
 
 SOLVING FOR HEAD 
                                                   Max.-Head-Change                         Max.-Flux-Residual
  Residual-Control   Outer-Iter.   Inner-Iter.     Column Row Layer    Maximum-Head-Change  Column Row Layer    Maximum-Flux-Residual          L2-NORM 
          0                 1           2             5    3     1       0.1524277769E-02       6    4    1         0.7302364620E-01      0.3262366883E+00
          0                 2           2             5    3     1      -0.1482707243E-03       6    4    1        -0.7302367324E-02      0.3283770100E-01
          0                 3           1             4    7     1      -0.1252605252E-04       4    7    1        -0.6705366993E-03      0.2447598069E-02

    ------------------------------------------------
       NWT REQUIRED            3 OUTER ITERATIONS 
       AND A TOTAL OF          5 INNER ITERATIONS.
    ------------------------------------------------

 NO OUTPUT CONTROL FOR STRESS PERIOD   26   TIME STEP   22
 
 SOLVING FOR HEAD 
                                                   Max.-Head-Change                         Max.-Flux-Residual
  Residual-Control   Outer-Iter.   Inner-Iter.     Column Row Layer    Maximum-Head-Change  Column Row Layer    Maximum-Flux-Residual          L2-NORM 
          0                 1           2             5    3     1       0.1517827821E-02       6    4    1         0.7251469936E-01      0.3250041082E+00
          0                 2           2             5    3     1      -0.1476433163E-03       6    4    1        -0.7251472583E-02      0.3269677896E-01
          0                 3           1             4    7     1      -0.1200985859E-04       4    7    1        -0.6433283618E-03      0.2424921961E-02

    ------------------------------------------------
       NWT REQUIRED            3 OUTER ITERATIONS 
       AND A TOTAL OF          5 INNER ITERATIONS.
    ------------------------------------------------

 NO OUTPUT CONTROL FOR STRESS PERIOD   26   TIME STEP   23
 
 SOLVING FOR HEAD 
                                                   Max.-Head-Change                         Max.-Flux-Residual
  Residual-Control   Outer-Iter.   Inner-Iter.     Column Row Layer    Maximum-Head-Change  Column Row Layer    Maximum-Flux-Residual          L2-NORM 
          0                 1           2             5    3     1       0.1510966033E-02       6    4    1         0.7200240285E-01      0.3237991489E+00
          0                 2           2             5    3     1      -0.1469758470E-03       6    4    1        -0.7200242870E-02      0.3256042136E-01
          0                 3           1             4    7     1      -0.1150356031E-04       4    7    1        -0.6166424466E-03      0.2403655104E-02

    ------------------------------------------------
       NWT REQUIRED            3 OUTER ITERATIONS 
       AND A TOTAL OF          5 INNER ITERATIONS.
    ------------------------------------------------

 NO OUTPUT CONTROL FOR STRESS PERIOD   26   TIME STEP   24
 
 SOLVING FOR HEAD 
                                                   Max.-Head-Change                         Max.-Flux-Residual
  Residual-Control   Outer-Iter.   Inner-Iter.     Column Row Layer    Maximum-Head-Change  Column Row Layer    Maximum-Flux-Residual          L2-NORM 
          0                 1           2             5    3     1       0.1504158029E-02       6    4    1         0.7149916647E-01      0.3226069075E+00
          0                 2           2             5    3     1      -0.1463136098E-03       6    4    1        -0.7149919195E-02      0.3242662823E-01
          0                 3           1             4    7     1      -0.1099546347E-04       4    7    1        -0.5898488337E-03      0.2383395557E-02

    ------------------------------------------------
       NWT REQUIRED            3 OUTER ITERATIONS 
       AND A TOTAL OF          5 INNER ITERATIONS.
    ------------------------------------------------

 NO OUTPUT CONTROL FOR STRESS PERIOD   26   TIME STEP   25
 
 SOLVING FOR HEAD 
                                                   Max.-Head-Change                         Max.-Flux-Residual
  Residual-Control   Outer-Iter.   Inner-Iter.     Column Row Layer    Maximum-Head-Change  Column Row Layer    Maximum-Flux-Residual          L2-NORM 
          0                 1           2             5    3     1       0.1497864344E-02       6    4    1         0.7100482646E-01      0.3214481917E+00
          0                 2           2             5    3     1      -0.1457014011E-03       6    4    1        -0.7100485133E-02      0.3229768143E-01
          0                 3           1             4    7     1      -0.1050829743E-04       4    7    1        -0.5641817279E-03      0.2364610252E-02

    ------------------------------------------------
       NWT REQUIRED            3 OUTER ITERATIONS 
       AND A TOTAL OF          5 INNER ITERATIONS.
    ------------------------------------------------

 NO OUTPUT CONTROL FOR STRESS PERIOD   26   TIME STEP   26
 
 SOLVING FOR HEAD 
                                                   Max.-Head-Change                         Max.-Flux-Residual
  Residual-Control   Outer-Iter.   Inner-Iter.     Column Row Layer    Maximum-Head-Change  Column Row Layer    Maximum-Flux-Residual          L2-NORM 
          0                 1           2             5    3     1       0.1491158928E-02       6    4    1         0.7051933172E-01      0.3202979892E+00
          0                 2           2             5    3     1      -0.1450491432E-03       6    4    1        -0.7051935605E-02      0.3217120046E-01
          0                 3           1             4    7     1      -0.1003022193E-04       4    7    1        -0.5389927978E-03      0.2346994566E-02

    ------------------------------------------------
       NWT REQUIRED            3 OUTER ITERATIONS 
       AND A TOTAL OF          5 INNER ITERATIONS.
    ------------------------------------------------

 NO OUTPUT CONTROL FOR STRESS PERIOD   26   TIME STEP   27
 
 SOLVING FOR HEAD 
                                                   Max.-Head-Change                         Max.-Flux-Residual
  Residual-Control   Outer-Iter.   Inner-Iter.     Column Row Layer    Maximum-Head-Change  Column Row Layer    Maximum-Flux-Residual          L2-NORM 
          0                 1           2             5    3     1       0.1484509213E-02       8    7    1         0.7016099409E-01      0.3191766484E+00
          0                 2           2             5    3     1      -0.1444023034E-03       8    7    1        -0.7016101185E-02      0.3204878099E-01
          0                 3           1             5    3     1       0.9833262043E-05       4    7    1        -0.5136629227E-03      0.2330384541E-02

    ------------------------------------------------
       NWT REQUIRED            3 OUTER ITERATIONS 
       AND A TOTAL OF          5 INNER ITERATIONS.
    ------------------------------------------------

 NO OUTPUT CONTROL FOR STRESS PERIOD   26   TIME STEP   28
 
 SOLVING FOR HEAD 
                                                   Max.-Head-Change                         Max.-Flux-Residual
  Residual-Control   Outer-Iter.   Inner-Iter.     Column Row Layer    Maximum-Head-Change  Column Row Layer    Maximum-Flux-Residual          L2-NORM 
          0                 1           2             5    3     1       0.1477917477E-02       8    7    1         0.6986265381E-01      0.3180712105E+00
          0                 2           2             5    3     1      -0.1437611036E-03       8    7    1        -0.6986267132E-02      0.3192919369E-01
          0                 3           1             5    3     1       0.9789599611E-05       8    7    1         0.4890388902E-03      0.2314930076E-02

    ------------------------------------------------
       NWT REQUIRED            3 OUTER ITERATIONS 
       AND A TOTAL OF          5 INNER ITERATIONS.
    ------------------------------------------------

 NO OUTPUT CONTROL FOR STRESS PERIOD   26   TIME STEP   29
 
 SOLVING FOR HEAD 
                                                   Max.-Head-Change                         Max.-Flux-Residual
  Residual-Control   Outer-Iter.   Inner-Iter.     Column Row Layer    Maximum-Head-Change  Column Row Layer    Maximum-Flux-Residual          L2-NORM 
          0                 1           2             5    3     1       0.1471384069E-02       8    7    1         0.6956756694E-01      0.3169928697E+00
          0                 2           2             5    3     1      -0.1431255772E-03       8    7    1        -0.6956758453E-02      0.3181396058E-01
          0                 3           1             5    3     1       0.9746323193E-05       8    7    1         0.4869732720E-03      0.2300828304E-02

    ------------------------------------------------
       NWT REQUIRED            3 OUTER ITERATIONS 
       AND A TOTAL OF          5 INNER ITERATIONS.
    ------------------------------------------------

 NO OUTPUT CONTROL FOR STRESS PERIOD   26   TIME STEP   30



 STREAM LISTING     PERIOD     26   STEP       30

 LAYER ROW COL. STREAM  RCH.  FLOW INTO     FLOW TO   FLOW OUT OF   OVRLND.     DIRECT     STREAM       STREAM     STREAM     STREAM   STREAMBED  STREAMBED
                SEG.NO.  NO.  STRM. RCH.    AQUIFER    STRM. RCH.    RUNOFF     PRECIP       ET          HEAD       DEPTH      WIDTH   CONDCTNC.   GRADIENT

   1    1    1     1     1    1.6500E+01  1.9759E-01   1.6303E+01  0.000E+00  0.000E+00  0.000E+00  1.09409E+03  1.039E+00  1.087E+01  4.893E-02  1.346E+00
   1    2    2     1     2    1.6303E+01  3.0466E-01   1.5998E+01  0.000E+00  0.000E+00  0.000E+00  1.08909E+03  1.034E+00  1.079E+01  7.552E-02  1.345E+00
   1    3    3     1     3    1.5998E+01  2.5853E-01   1.5739E+01  0.000E+00  0.000E+00  0.000E+00  1.08345E+03  1.029E+00  1.070E+01  6.417E-02  1.343E+00
   1    3    4     1     4    1.5739E+01  2.3700E-01   1.5502E+01  0.000E+00  0.000E+00  0.000E+00  1.07843E+03  1.024E+00  1.061E+01  5.890E-02  1.341E+00
   1    4    5     2     1    1.3502E+01  2.9865E-01   1.3204E+01  0.000E+00  0.000E+00  0.000E+00  1.07276E+03  8.289E-01  1.200E+01  7.800E-02  1.276E+00
   1    5    6     2     2    1.3204E+01  2.2914E-01   1.2975E+01  0.000E+00  0.000E+00  0.000E+00  1.06733E+03  8.190E-01  1.200E+01  6.000E-02  1.273E+00
   1    6    6     2     3    1.2975E+01  2.2862E-01   1.2746E+01  0.000E+00  0.000E+00  0.000E+00  1.06260E+03  8.104E-01  1.200E+01  6.000E-02  1.270E+00
   1    7    6     2     4    1.2746E+01  2.2810E-01   1.2518E+01  0.000E+00  0.000E+00  0.000E+00  1.05788E+03  8.017E-01  1.200E+01  6.000E-02  1.267E+00
   1    8    6     2     5    1.2518E+01  2.2758E-01   1.2290E+01  0.000E+00  0.000E+00  0.000E+00  1.05315E+03  7.930E-01  1.200E+01  6.000E-02  1.264E+00
   1    3    5     3     1    2.0000E+00  2.8252E-01   1.7175E+00  0.000E+00  0.000E+00  0.000E+00  1.07555E+03  1.909E+00  9.636E+00  7.227E-02  1.955E+00
   1    3    6     3     2    1.7175E+00  2.4905E-01   1.4684E+00  0.000E+00  0.000E+00  0.000E+00  1.07264E+03  1.727E+00  8.909E+00  6.682E-02  1.864E+00
   1    3    7     3     3    1.4684E+00  1.9718E-01   1.2712E+00  0.000E+00  0.000E+00  0.000E+00  1.06987E+03  1.555E+00  8.218E+00  5.547E-02  1.777E+00
   1    4    8     3     4    1.2712E+00  2.2567E-01   1.0456E+00  0.000E+00  0.000E+00  0.000E+00  1.06682E+03  1.364E+00  7.455E+00  6.709E-02  1.682E+00
   1    5    8     3     5    1.0456E+00  1.5790E-01   8.8768E-01  0.000E+00  0.000E+00  0.000E+00  1.06362E+03  1.164E+00  6.655E+00  4.991E-02  1.582E+00
   1    6    8     3     6    8.8768E-01  5.5980E-02   8.3170E-01  0.000E+00  0.000E+00  0.000E+00  1.06158E+03  1.036E+00  6.145E+00  1.844E-02  1.518E+00
   1    5   10     4     1    1.0000E+01  9.0919E-02   9.9091E+00  0.000E+00  0.000E+00  0.000E+00  1.07836E+03  6.368E-01  1.000E+01  2.500E-02  1.212E+00
   1    5    9     4     2    9.9091E+00  1.8158E-01   9.7275E+00  0.000E+00  0.000E+00  0.000E+00  1.07154E+03  6.315E-01  1.000E+01  5.000E-02  1.211E+00
   1    6    8     4     3    9.7275E+00  1.2689E-01   9.6006E+00  0.000E+00  0.000E+00  0.000E+00  1.06381E+03  6.256E-01  1.000E+01  3.500E-02  1.209E+00
   1    6    8     5     1    1.0432E+01  2.2686E-01   1.0205E+01  0.000E+00  0.000E+00  0.000E+00  1.05868E+03  6.790E-01  1.542E+01  6.166E-02  1.226E+00
   1    7    7     5     2    1.0205E+01  2.7894E-01   9.9265E+00  0.000E+00  0.000E+00  0.000E+00  1.05417E+03  6.732E-01  1.519E+01  7.594E-02  1.224E+00
   1    8    7     5     3    9.9265E+00  1.9221E-01   9.7343E+00  0.000E+00  0.000E+00  0.000E+00  1.04992E+03  6.676E-01  1.497E+01  5.241E-02  1.223E+00
   1    8    6     5     4    9.7343E+00  1.3577E-01   9.5985E+00  0.000E+00  0.000E+00  0.000E+00  1.04691E+03  6.637E-01  1.482E+01  3.706E-02  1.221E+00
   1    9    6     6     1    2.1889E+01  2.4742E-01   2.1641E+01  0.000E+00  0.000E+00  0.000E+00  1.04385E+03  1.124E+00  1.200E+01  6.000E-02  1.375E+00
   1   10    7     6     2    2.1641E+01  2.4696E-01   2.1395E+01  0.000E+00  0.000E+00  0.000E+00  1.03930E+03  1.116E+00  1.200E+01  6.000E-02  1.372E+00
   1   11    7     6     3    2.1395E+01  2.4650E-01   2.1148E+01  0.000E+00  0.000E+00  0.000E+00  1.03474E+03  1.108E+00  1.200E+01  6.000E-02  1.369E+00
   1   12    7     6     4    2.1148E+01  2.4603E-01   2.0902E+01  0.000E+00  0.000E+00  0.000E+00  1.03019E+03  1.101E+00  1.200E+01  6.000E-02  1.367E+00
   1   13    7     6     5    2.0902E+01 -2.6303E-03   2.0905E+01  0.000E+00  0.000E+00  0.000E+00  1.02701E+03  1.097E+00  1.200E+01  2.400E-01 -3.653E-03
   1   14    9     7     1    1.5000E+02  1.3468E+00   1.4865E+02  0.000E+00  0.000E+00  0.000E+00  1.03987E+03  2.288E+00  5.529E+01  5.593E-01  8.027E-01
   1   13    8     7     2    1.4865E+02  1.8602E+00   1.4679E+02  0.000E+00  0.000E+00  0.000E+00  1.03478E+03  2.279E+00  5.526E+01  6.148E-01  1.009E+00
   1   13    7     7     3    1.4679E+02  1.4926E+00   1.4530E+02  0.000E+00  0.000E+00  0.000E+00  1.02969E+03  2.270E+00  5.522E+01  5.584E-01  8.909E-01
   1   13    6     8     1    1.6620E+02  9.1601E-01   1.6529E+02  0.000E+00  0.000E+00  0.000E+00  1.02480E+03  2.924E+00  4.240E+01  4.321E-01  7.066E-01
   1   13    5     8     2    1.6529E+02  1.6432E-01   1.6512E+02  0.000E+00  0.000E+00  0.000E+00  1.01855E+03  2.921E+00  4.235E+01  4.316E-01  1.269E-01
   1   13    4     8     3    1.6512E+02 -2.4940E+00   1.6762E+02  0.000E+00  0.000E+00  0.000E+00  1.01230E+03  2.928E+00  4.246E+01  4.327E+00 -1.921E-01
   1   13    3     8     4    1.6762E+02 -3.6564E+00   1.7128E+02  0.000E+00  0.000E+00  0.000E+00  1.00607E+03  2.949E+00  4.275E+01  4.357E+00 -2.797E-01
   1   13    2     8     5    1.7128E+02 -2.5652E+00   1.7384E+02  0.000E+00  0.000E+00  0.000E+00  9.99844E+02  2.969E+00  4.305E+01  4.387E+00 -1.949E-01
   1   13    1     8     6    1.7384E+02 -1.9699E+00   1.7581E+02  0.000E+00  0.000E+00  0.000E+00  9.94858E+02  2.983E+00  4.326E+01  2.645E+00 -2.483E-01
   1    8    6     9     1    0.0000E+00  0.0000E+00   0.0000E+00  0.000E+00  0.000E+00  0.000E+00  1.07875E+03  0.000E+00  4.000E+00  0.000E+00  1.000E+00
   1    8    5     9     2    0.0000E+00  0.0000E+00   0.0000E+00  0.000E+00  0.000E+00  0.000E+00  1.07825E+03  0.000E+00  4.000E+00  0.000E+00  1.000E+00





UNSATURATED ZONE PACKAGE VOLUMETRIC BUDGET FOR  TIME STEP    30 STRESS PERIOD   26
  ------------------------------------------------------------------------------



     CUMULATIVE VOLUMES      L**3       RATES FOR THIS TIME STEP      L**3/T
     ------------------                 ------------------------

           IN:                                      IN:
           ---                                      ---
        INFILTRATION =  2827709605.6133          INFILTRATION =           0.8475

          OUT:                                     OUT:
          ----                                     ----
              UZF ET =   866535214.6400                UZF ET =           0.7500
        UZF RECHARGE =  1611576006.4341          UZF RECHARGE =           1.3376

            IN - OUT =   349598384.5393              IN - OUT =          -1.2401

          STORAGE:                                 STORAGE:
          --------                                 --------
      STORAGE CHANGE =   349595009.6862        STORAGE CHANGE =          -1.2401

 PERCENT DISCREPANCY IS DIFFERENCE BETWEEN IN-OUT MINUS CHANGE IN STORAGE
 DIVIDED BY THE AVERAGE OF IN AND OUT TIMES 100

 PERCENT DISCREPANCY =           0.00     PERCENT DISCREPANCY =           0.00






1
  VOLUMETRIC BUDGET FOR AGRICULTURAL FIELDS AT  END OF TIME STEP   30, STRESS PERIOD  26
  ------------------------------------------------------------------------------

     CUMULATIVE VOLUMES      L**3       RATES FOR THIS TIME STEP      L**3/T
     ------------------                 ------------------------

           IN:                                      IN:
           ---                                      ---
           AG WELLS      =  1742828032.0000             AG WELLS      =           0.0000
      DIVERSION SEGMENTS =  1029065024.0000        DIVERSION SEGMENTS =           0.0000
           GW IRRIGATION =           0.0000             GW IRRIGATION =           0.0000
           SW IRRIGATION =           0.0000             SW IRRIGATION =           0.0000
        SYSTEM LOSSES GW =           0.0000          SYSTEM LOSSES GW =           0.0000
        SYSTEM LOSSES SW =           0.0000          SYSTEM LOSSES SW =           0.0000

                TOTAL IN =  2771892992.0000                  TOTAL IN =           0.0000

          OUT:                                     OUT:
          ----                                     ----
           AG WELLS      =           0.0000             AG WELLS      =           0.0000
      DIVERSION SEGMENTS =           0.0000        DIVERSION SEGMENTS =           0.0000
           GW IRRIGATION =  1742828032.0000             GW IRRIGATION =           0.0000
           SW IRRIGATION =  1029085184.0000             SW IRRIGATION =           0.0000
        SYSTEM LOSSES GW =           0.0000          SYSTEM LOSSES GW =           0.0000
        SYSTEM LOSSES SW =           0.0000          SYSTEM LOSSES SW =           0.0000

               TOTAL OUT =  2771913216.0000                 TOTAL OUT =           0.0000

                IN - OUT =      -20224.0000                  IN - OUT =           0.0000

     PERCENT DISCREPANCY =          -0.00         PERCENT DISCREPANCY =           0.00



1
  VOLUMETRIC BUDGET FOR ENTIRE MODEL AT END OF TIME STEP   30, STRESS PERIOD  26
  ------------------------------------------------------------------------------

     CUMULATIVE VOLUMES      L**3       RATES FOR THIS TIME STEP      L**3/T
     ------------------                 ------------------------

           IN:                                      IN:
           ---                                      ---
             STORAGE     =  1768932480.0000               STORAGE     =           0.3108
       CONSTANT HEAD     =           0.0000         CONSTANT HEAD     =           0.0000
     HEAD DEP BOUNDS     =    18829610.0000       HEAD DEP BOUNDS     =           0.2865
      STREAM LEAKAGE     =   782471040.0000        STREAM LEAKAGE     =          11.3782
        UZF RECHARGE     =  1611575808.0000          UZF RECHARGE     =           1.3376
               GW ET     =           0.0000                 GW ET     =           0.0000
     SURFACE LEAKAGE     =           0.0000       SURFACE LEAKAGE     =           0.0000
           AG WELLS      =           0.0000             AG WELLS      =           0.0000

                TOTAL IN =  4181808896.0000                  TOTAL IN =          13.3131

          OUT:                                     OUT:
          ----                                     ----
             STORAGE     =  1711408000.0000               STORAGE     =           2.3367
       CONSTANT HEAD     =           0.0000         CONSTANT HEAD     =           0.0000
     HEAD DEP BOUNDS     =    19050186.0000       HEAD DEP BOUNDS     =           0.2889
      STREAM LEAKAGE     =   708453632.0000        STREAM LEAKAGE     =          10.6882
        UZF RECHARGE     =           0.0000          UZF RECHARGE     =           0.0000
               GW ET     =      106432.0312                 GW ET     =           0.0000
     SURFACE LEAKAGE     =           0.0000       SURFACE LEAKAGE     =           0.0000
           AG WELLS      =  1742828032.0000             AG WELLS      =           0.0000

               TOTAL OUT =  4181846528.0000                 TOTAL OUT =          13.3138

                IN - OUT =      -37632.0000                  IN - OUT =      -6.9332E-04

     PERCENT DISCREPANCY =          -0.00         PERCENT DISCREPANCY =          -0.01






         TIME SUMMARY AT END OF TIME STEP   30 IN STRESS PERIOD   26
                    SECONDS     MINUTES      HOURS       DAYS        YEARS
                    -----------------------------------------------------------
   TIME STEP LENGTH  87667.      1461.1      24.352      1.0147     2.77799E-03
 STRESS PERIOD TIME 2.63000E+06  43833.      730.56      30.440     8.33397E-02
         TOTAL TIME 6.58368E+07 1.09728E+06  18288.      762.00      2.0862    
1
1
                            STRESS PERIOD NO.   27, LENGTH =   2630000.    
                            -----------------------------------------------

                              NUMBER OF TIME STEPS =    30

                               MULTIPLIER FOR DELT =     1.000

                            INITIAL TIME STEP SIZE =   87666.66    

 REUSING NON-PARAMETER GHB CELLS FROM LAST STRESS PERIOD

      2 GHB CELLS

 REUSING STREAM SEGMENT DATA FROM LAST STRESS PERIOD



            AREAL INFILTRATION RATE
 READING ON UNIT   19 WITH FORMAT: (FREE)              

            1           2           3           4           5           6           7           8           9          10
 ........................................................................................................................
   1   1.0000E-10  2.0000E-10   0.000       0.000       0.000       0.000       0.000       0.000       0.000       0.000    
   2   2.0000E-10  1.0000E-10  2.0000E-10   0.000       0.000      8.0000E-10  8.0000E-10  5.0000E-10   0.000       0.000    
   3    0.000      5.0000E-10  1.0000E-10  1.0000E-10  8.0000E-10  8.0000E-10  5.0000E-10  5.0000E-10   0.000       0.000    
   4   8.0000E-10  5.0000E-10  1.0000E-10  1.0000E-10  1.0000E-10  1.0000E-10  1.0000E-10  1.0000E-10  2.0000E-10   0.000    
   5   8.0000E-10  5.0000E-10  1.0000E-10  1.0000E-10  1.0000E-10  1.0000E-10  1.0000E-10  1.0000E-10  1.0000E-10  1.0000E-10
   6   8.0000E-10  5.0000E-10  5.0000E-10  2.0000E-10  2.0000E-10  1.0000E-10  1.0000E-10  1.0000E-10  1.0000E-10  5.0000E-10
   7   8.0000E-10  5.0000E-10  5.0000E-10  2.0000E-10  2.0000E-10  1.0000E-10  1.0000E-10  2.0000E-10  2.0000E-10   0.000    
   8    0.000      5.0000E-10  5.0000E-10  2.0000E-10  2.0000E-10  1.0000E-10  1.0000E-10  2.0000E-10  5.0000E-10   0.000    
   9    0.000      5.0000E-10  5.0000E-10  2.0000E-10  2.0000E-10  1.0000E-10  1.0000E-10  2.0000E-10  5.0000E-10   0.000    
  10    0.000      5.0000E-10  5.0000E-10  2.0000E-10  2.0000E-10  1.0000E-10  1.0000E-10  2.0000E-10  5.0000E-10  8.0000E-10
  11    0.000      1.0000E-10  1.0000E-10  1.0000E-10  1.0000E-10  1.0000E-10  1.0000E-10  2.0000E-10  5.0000E-10   0.000    
  12   1.0000E-10  1.0000E-10  1.0000E-10  1.0000E-10  1.0000E-10  1.0000E-10  1.0000E-10  1.0000E-10  2.0000E-10   0.000    
  13   1.0000E-10  1.0000E-10  2.0000E-10  2.0000E-10  2.0000E-10  2.0000E-10  2.0000E-10  1.0000E-10  1.0000E-10   0.000    
  14    0.000      2.0000E-10  5.0000E-10  5.0000E-10  5.0000E-10  5.0000E-10  5.0000E-10  2.0000E-10  1.0000E-10   0.000    
  15    0.000       0.000      8.0000E-10  8.0000E-10  8.0000E-10  8.0000E-10   0.000       0.000       0.000       0.000    

                  ET RATE =  5.000000E-10

 USING ET EXTINCTION DEPTH FROM PREVIOUS STRESS PERIOD. CURRENT PERIOD IS:      27

 USING EXTINCTION WATER CONTENT FROM PREVIOUS STRESS PERIOD. CURRENT PERIOD IS:      27

 USING AIR ENTRY PRESSURE FROM PREVIOUS STRESS PERIOD. CURRENT PERIOD IS:      27

 USING ROOT PRESSURE HEAD FROM PREVIOUS STRESS PERIOD. CURRENT PERIOD IS:      27

 USING ROOT ACTIVITY FROM PREVIOUS STRESS PERIOD. CURRENT PERIOD IS:      27

 PROCESSING AG STRESS PERIOD DATA

 READING AG STRESS PERIOD DATA

 READING IRRIGATION SEGMENT

 READING IRRIGATION WELL

 READING SUPPLEMENTAL WELL

 END PROCESSING AG STRESS PERIOD DATA OPTIONS
 
 SOLVING FOR HEAD 
                                                   Max.-Head-Change                         Max.-Flux-Residual
  Residual-Control   Outer-Iter.   Inner-Iter.     Column Row Layer    Maximum-Head-Change  Column Row Layer    Maximum-Flux-Residual          L2-NORM 
          0                 1           2             5    3     1       0.1464907419E-02       8    7    1         0.6927560104E-01      0.3159287192E+00
          0                 2           2             5    3     1      -0.1424955719E-03       8    7    1        -0.6927561836E-02      0.3170117967E-01
          0                 3           1             5    3     1       0.9703422849E-05       8    7    1         0.4849295361E-03      0.2287620017E-02

    ------------------------------------------------
       NWT REQUIRED            3 OUTER ITERATIONS 
       AND A TOTAL OF          5 INNER ITERATIONS.
    ------------------------------------------------

 NO OUTPUT CONTROL FOR STRESS PERIOD   27   TIME STEP    1
 
 SOLVING FOR HEAD 
                                                   Max.-Head-Change                         Max.-Flux-Residual
  Residual-Control   Outer-Iter.   Inner-Iter.     Column Row Layer    Maximum-Head-Change  Column Row Layer    Maximum-Flux-Residual          L2-NORM 
          0                 1           2             5    3     1       0.1461894884E-02       4    3    1         0.7639203277E-01      0.3412930063E+00
          0                 2           2             7   13     1      -0.2458025954E-03       7   13    1        -0.1357359025E-01      0.3653453414E-01
          0                 3           1             7   13     1       0.1673409586E-04       7   13    1         0.9499207429E-03      0.2607359722E-02

    ------------------------------------------------
       NWT REQUIRED            3 OUTER ITERATIONS 
       AND A TOTAL OF          5 INNER ITERATIONS.
    ------------------------------------------------

 NO OUTPUT CONTROL FOR STRESS PERIOD   27   TIME STEP    2
 
 SOLVING FOR HEAD 
                                                   Max.-Head-Change                         Max.-Flux-Residual
  Residual-Control   Outer-Iter.   Inner-Iter.     Column Row Layer    Maximum-Head-Change  Column Row Layer    Maximum-Flux-Residual          L2-NORM 
          0                 1           2             4   13     1       0.5760505202E-02       4   13    1         0.3300341749E+00      0.7184237375E+00
          0                 2           2             4   13     1      -0.5545837076E-03       4   13    1        -0.3266831244E-01      0.7058658233E-01
          0                 3           1             4   13     1       0.3723285630E-04       4   13    1         0.2254935583E-02      0.4849019334E-02

    ------------------------------------------------
       NWT REQUIRED            3 OUTER ITERATIONS 
       AND A TOTAL OF          5 INNER ITERATIONS.
    ------------------------------------------------

 NO OUTPUT CONTROL FOR STRESS PERIOD   27   TIME STEP    3
 
 SOLVING FOR HEAD 
                                                   Max.-Head-Change                         Max.-Flux-Residual
  Residual-Control   Outer-Iter.   Inner-Iter.     Column Row Layer    Maximum-Head-Change  Column Row Layer    Maximum-Flux-Residual          L2-NORM 
          0                 1           2             4   13     1       0.5229954011E-02       4   13    1         0.2994174895E+00      0.6832669239E+00
          0                 2           2             4   13     1      -0.5034414823E-03       4   13    1        -0.2963373305E-01      0.6720992713E-01
          0                 3           1             4   13     1       0.3378624794E-04       4   13    1         0.2044649226E-02      0.4626688496E-02

    ------------------------------------------------
       NWT REQUIRED            3 OUTER ITERATIONS 
       AND A TOTAL OF          5 INNER ITERATIONS.
    ------------------------------------------------

 NO OUTPUT CONTROL FOR STRESS PERIOD   27   TIME STEP    4
 
 SOLVING FOR HEAD 
                                                   Max.-Head-Change                         Max.-Flux-Residual
  Residual-Control   Outer-Iter.   Inner-Iter.     Column Row Layer    Maximum-Head-Change  Column Row Layer    Maximum-Flux-Residual          L2-NORM 
          0                 1           2             4   13     1       0.4751955989E-02       4   13    1         0.2718429519E+00      0.6520432481E+00
          0                 2           2             4   13     1      -0.4573621162E-03       4   13    1        -0.2690050969E-01      0.6421581698E-01
          0                 3           1             4   13     1       0.3067863439E-04       4   13    1         0.1855115172E-02      0.4430492877E-02

    ------------------------------------------------
       NWT REQUIRED            3 OUTER ITERATIONS 
       AND A TOTAL OF          5 INNER ITERATIONS.
    ------------------------------------------------

 NO OUTPUT CONTROL FOR STRESS PERIOD   27   TIME STEP    5
 
 SOLVING FOR HEAD 
                                                   Max.-Head-Change                         Max.-Flux-Residual
  Residual-Control   Outer-Iter.   Inner-Iter.     Column Row Layer    Maximum-Head-Change  Column Row Layer    Maximum-Flux-Residual          L2-NORM 
          0                 1           2             2   13     1       0.4365909435E-02       4   13    1         0.2470013417E+00      0.6243453414E+00
          0                 2           2             4   13     1      -0.4158799318E-03       4   13    1        -0.2444082328E-01      0.6156658712E-01
          0                 3           1             4   13     1       0.2791369428E-04       4   13    1         0.1686548339E-02      0.4259123911E-02

    ------------------------------------------------
       NWT REQUIRED            3 OUTER ITERATIONS 
       AND A TOTAL OF          5 INNER ITERATIONS.
    ------------------------------------------------

 NO OUTPUT CONTROL FOR STRESS PERIOD   27   TIME STEP    6
 
 SOLVING FOR HEAD 
                                                   Max.-Head-Change                         Max.-Flux-Residual
  Residual-Control   Outer-Iter.   Inner-Iter.     Column Row Layer    Maximum-Head-Change  Column Row Layer    Maximum-Flux-Residual          L2-NORM 
          0                 1           2             2   13     1       0.4041404938E-02       2   13    1         0.2274912595E+00      0.5997958021E+00
          0                 2           2             4   13     1      -0.3784392492E-03       4   13    1        -0.2222157774E-01      0.5922004410E-01
          0                 3           1             4   13     1       0.2538524390E-04       4   13    1         0.1532448280E-02      0.4107232420E-02

    ------------------------------------------------
       NWT REQUIRED            3 OUTER ITERATIONS 
       AND A TOTAL OF          5 INNER ITERATIONS.
    ------------------------------------------------

 NO OUTPUT CONTROL FOR STRESS PERIOD   27   TIME STEP    7
 
 SOLVING FOR HEAD 
                                                   Max.-Head-Change                         Max.-Flux-Residual
  Residual-Control   Outer-Iter.   Inner-Iter.     Column Row Layer    Maximum-Head-Change  Column Row Layer    Maximum-Flux-Residual          L2-NORM 
          0                 1           2             2   13     1       0.3741480171E-02       2   13    1         0.2105800156E+00      0.5780533093E+00
          0                 2           2             2   13     1      -0.3480811079E-03       4   13    1        -0.2022091281E-01      0.5714602748E-01
          0                 3           1             4   13     1       0.2311165632E-04       4   13    1         0.1393955611E-02      0.3974356421E-02

    ------------------------------------------------
       NWT REQUIRED            3 OUTER ITERATIONS 
       AND A TOTAL OF          5 INNER ITERATIONS.
    ------------------------------------------------

 NO OUTPUT CONTROL FOR STRESS PERIOD   27   TIME STEP    8
 
 SOLVING FOR HEAD 
                                                   Max.-Head-Change                         Max.-Flux-Residual
  Residual-Control   Outer-Iter.   Inner-Iter.     Column Row Layer    Maximum-Head-Change  Column Row Layer    Maximum-Flux-Residual          L2-NORM 
          0                 1           2             2   13     1       0.3464176384E-02       2   13    1         0.1949452647E+00      0.5588174525E+00
          0                 2           2             2   13     1      -0.3223516432E-03       2   13    1        -0.1864643876E-01      0.5531504652E-01
          0                 3           1             4   13     1       0.2104706673E-04       4   13    1         0.1268195492E-02      0.3858647394E-02

    ------------------------------------------------
       NWT REQUIRED            3 OUTER ITERATIONS 
       AND A TOTAL OF          5 INNER ITERATIONS.
    ------------------------------------------------

 NO OUTPUT CONTROL FOR STRESS PERIOD   27   TIME STEP    9
 
 SOLVING FOR HEAD 
                                                   Max.-Head-Change                         Max.-Flux-Residual
  Residual-Control   Outer-Iter.   Inner-Iter.     Column Row Layer    Maximum-Head-Change  Column Row Layer    Maximum-Flux-Residual          L2-NORM 
          0                 1           2             2   13     1       0.3207842610E-02       2   13    1         0.1804937824E+00      0.5417934427E+00
          0                 2           2             2   13     1      -0.2985641827E-03       2   13    1        -0.1726782446E-01      0.5369761623E-01
          0                 3           1             4   13     1       0.1921358174E-04       4   13    1         0.1156592542E-02      0.3757596081E-02

    ------------------------------------------------
       NWT REQUIRED            3 OUTER ITERATIONS 
       AND A TOTAL OF          5 INNER ITERATIONS.
    ------------------------------------------------

 NO OUTPUT CONTROL FOR STRESS PERIOD   27   TIME STEP   10
 
 SOLVING FOR HEAD 
                                                   Max.-Head-Change                         Max.-Flux-Residual
  Residual-Control   Outer-Iter.   Inner-Iter.     Column Row Layer    Maximum-Head-Change  Column Row Layer    Maximum-Flux-Residual          L2-NORM 
          0                 1           2             2   13     1       0.2970861677E-02       2   13    1         0.1671342899E+00      0.5267280243E+00
          0                 2           2             2   13     1      -0.2765677228E-03       2   13    1        -0.1599310079E-01      0.5226872955E-01
          0                 3           1             3    3     1       0.1793394486E-04       4   13    1         0.1055105357E-02      0.3670578137E-02

    ------------------------------------------------
       NWT REQUIRED            3 OUTER ITERATIONS 
       AND A TOTAL OF          5 INNER ITERATIONS.
    ------------------------------------------------

 NO OUTPUT CONTROL FOR STRESS PERIOD   27   TIME STEP   11
 
 SOLVING FOR HEAD 
                                                   Max.-Head-Change                         Max.-Flux-Residual
  Residual-Control   Outer-Iter.   Inner-Iter.     Column Row Layer    Maximum-Head-Change  Column Row Layer    Maximum-Flux-Residual          L2-NORM 
          0                 1           2             2   13     1       0.2751730565E-02       2   13    1         0.1547819463E+00      0.5133892131E+00
          0                 2           2             3    3     1      -0.2612297749E-03       2   13    1        -0.1481278415E-01      0.5100576038E-01
          0                 3           1             3    3     1       0.1778877823E-04       3    3    1         0.9844937963E-03      0.3593946864E-02

    ------------------------------------------------
       NWT REQUIRED            3 OUTER ITERATIONS 
       AND A TOTAL OF          5 INNER ITERATIONS.
    ------------------------------------------------

 NO OUTPUT CONTROL FOR STRESS PERIOD   27   TIME STEP   12
 
 SOLVING FOR HEAD 
                                                   Max.-Head-Change                         Max.-Flux-Residual
  Residual-Control   Outer-Iter.   Inner-Iter.     Column Row Layer    Maximum-Head-Change  Column Row Layer    Maximum-Flux-Residual          L2-NORM 
          0                 1           2             3    3     1       0.2663780014E-02       2   13    1         0.1433658210E+00      0.5015821310E+00
          0                 2           2             3    3     1      -0.2591132643E-03       3    3    1        -0.1394931156E-01      0.4989167694E-01
          0                 3           1             3    3     1       0.1764465202E-04       3    3    1         0.9764521692E-03      0.3528184090E-02

    ------------------------------------------------
       NWT REQUIRED            3 OUTER ITERATIONS 
       AND A TOTAL OF          5 INNER ITERATIONS.
    ------------------------------------------------

 NO OUTPUT CONTROL FOR STRESS PERIOD   27   TIME STEP   13
 
 SOLVING FOR HEAD 
                                                   Max.-Head-Change                         Max.-Flux-Residual
  Residual-Control   Outer-Iter.   Inner-Iter.     Column Row Layer    Maximum-Head-Change  Column Row Layer    Maximum-Flux-Residual          L2-NORM 
          0                 1           2             3    3     1       0.2642181187E-02       3    3    1         0.1383523788E+00      0.4911044209E+00
          0                 2           2             3    3     1      -0.2570122867E-03       3    3    1        -0.1383524510E-01      0.4890360598E-01
          0                 3           1             3    3     1       0.1750158302E-04       3    3    1         0.9684675028E-03      0.3471050089E-02

    ------------------------------------------------
       NWT REQUIRED            3 OUTER ITERATIONS 
       AND A TOTAL OF          5 INNER ITERATIONS.
    ------------------------------------------------

 NO OUTPUT CONTROL FOR STRESS PERIOD   27   TIME STEP   14
 
 SOLVING FOR HEAD 
                                                   Max.-Head-Change                         Max.-Flux-Residual
  Residual-Control   Outer-Iter.   Inner-Iter.     Column Row Layer    Maximum-Head-Change  Column Row Layer    Maximum-Flux-Residual          L2-NORM 
          0                 1           2             3    3     1       0.2621207942E-02       3    3    1         0.1372450106E+00      0.4818032684E+00
          0                 2           2             3    3     1      -0.2549721613E-03       3    3    1        -0.1372450824E-01      0.4802834418E-01
          0                 3           1             3    3     1       0.1736265818E-04       3    3    1         0.9607159234E-03      0.3421352653E-02

    ------------------------------------------------
       NWT REQUIRED            3 OUTER ITERATIONS 
       AND A TOTAL OF          5 INNER ITERATIONS.
    ------------------------------------------------

 NO OUTPUT CONTROL FOR STRESS PERIOD   27   TIME STEP   15
 
 SOLVING FOR HEAD 
                                                   Max.-Head-Change                         Max.-Flux-Residual
  Residual-Control   Outer-Iter.   Inner-Iter.     Column Row Layer    Maximum-Head-Change  Column Row Layer    Maximum-Flux-Residual          L2-NORM 
          0                 1           2             3    3     1       0.2600477187E-02       3    3    1         0.1361501210E+00      0.4735007622E+00
          0                 2           2             3    3     1      -0.2529556230E-03       3    3    1        -0.1361501922E-01      0.4724860456E-01
          0                 3           1             3    3     1       0.1722533964E-04       3    3    1         0.9530516879E-03      0.3378779181E-02

    ------------------------------------------------
       NWT REQUIRED            3 OUTER ITERATIONS 
       AND A TOTAL OF          5 INNER ITERATIONS.
    ------------------------------------------------

 NO OUTPUT CONTROL FOR STRESS PERIOD   27   TIME STEP   16
 
 SOLVING FOR HEAD 
                                                   Max.-Head-Change                         Max.-Flux-Residual
  Residual-Control   Outer-Iter.   Inner-Iter.     Column Row Layer    Maximum-Head-Change  Column Row Layer    Maximum-Flux-Residual          L2-NORM 
          0                 1           2             3    3     1       0.2580029941E-02       3    3    1         0.1350701939E+00      0.4661275933E+00
          0                 2           2             3    3     1      -0.2509666626E-03       3    3    1        -0.1350702646E-01      0.4655962017E-01
          0                 3           1             3    3     1       0.1708989862E-04       3    3    1         0.9454921887E-03      0.3342868849E-02

    ------------------------------------------------
       NWT REQUIRED            3 OUTER ITERATIONS 
       AND A TOTAL OF          5 INNER ITERATIONS.
    ------------------------------------------------

 NO OUTPUT CONTROL FOR STRESS PERIOD   27   TIME STEP   17
 
 SOLVING FOR HEAD 
                                                   Max.-Head-Change                         Max.-Flux-Residual
  Residual-Control   Outer-Iter.   Inner-Iter.     Column Row Layer    Maximum-Head-Change  Column Row Layer    Maximum-Flux-Residual          L2-NORM 
          0                 1           2             3    3     1       0.2559956383E-02       3    3    1         0.1340100258E+00      0.4595439932E+00
          0                 2           2             3    3     1      -0.2490140524E-03       3    3    1        -0.1340100962E-01      0.4594532956E-01
          0                 3           1             3    3     1       0.1695693321E-04       3    3    1         0.9380710210E-03      0.3311471051E-02

    ------------------------------------------------
       NWT REQUIRED            3 OUTER ITERATIONS 
       AND A TOTAL OF          5 INNER ITERATIONS.
    ------------------------------------------------

 NO OUTPUT CONTROL FOR STRESS PERIOD   27   TIME STEP   18
 
 SOLVING FOR HEAD 
                                                   Max.-Head-Change                         Max.-Flux-Residual
  Residual-Control   Outer-Iter.   Inner-Iter.     Column Row Layer    Maximum-Head-Change  Column Row Layer    Maximum-Flux-Residual          L2-NORM 
          0                 1           2             3    3     1       0.2540252251E-02       3    3    1         0.1329692330E+00      0.4536412812E+00
          0                 2           2             3    3     1      -0.2470973766E-03       3    3    1        -0.1329693029E-01      0.4539668009E-01
          0                 3           1             3    3     1       0.1682641453E-04       3    3    1         0.9307854525E-03      0.3285589924E-02

    ------------------------------------------------
       NWT REQUIRED            3 OUTER ITERATIONS 
       AND A TOTAL OF          5 INNER ITERATIONS.
    ------------------------------------------------

 NO OUTPUT CONTROL FOR STRESS PERIOD   27   TIME STEP   19
 
 SOLVING FOR HEAD 
                                                   Max.-Head-Change                         Max.-Flux-Residual
  Residual-Control   Outer-Iter.   Inner-Iter.     Column Row Layer    Maximum-Head-Change  Column Row Layer    Maximum-Flux-Residual          L2-NORM 
          0                 1           2             3    3     1       0.2520912446E-02       3    3    1         0.1319475947E+00      0.4483415041E+00
          0                 2           2             3    3     1      -0.2452161404E-03       3    3    1        -0.1319476641E-01      0.4490471984E-01
          0                 3           1             3    3     1       0.1669830992E-04       3    3    1         0.9236339938E-03      0.3263038959E-02

    ------------------------------------------------
       NWT REQUIRED            3 OUTER ITERATIONS 
       AND A TOTAL OF          5 INNER ITERATIONS.
    ------------------------------------------------

 NO OUTPUT CONTROL FOR STRESS PERIOD   27   TIME STEP   20
 
 SOLVING FOR HEAD 
                                                   Max.-Head-Change                         Max.-Flux-Residual
  Residual-Control   Outer-Iter.   Inner-Iter.     Column Row Layer    Maximum-Head-Change  Column Row Layer    Maximum-Flux-Residual          L2-NORM 
          0                 1           2             3    3     1       0.2501930596E-02       3    3    1         0.1309448463E+00      0.4435738608E+00
          0                 2           2             3    3     1      -0.2433697231E-03       3    3    1        -0.1309449152E-01      0.4446374484E-01
          0                 3           1             3    3     1       0.1657257535E-04       3    3    1         0.9166147329E-03      0.3244124820E-02

    ------------------------------------------------
       NWT REQUIRED            3 OUTER ITERATIONS 
       AND A TOTAL OF          5 INNER ITERATIONS.
    ------------------------------------------------

 NO OUTPUT CONTROL FOR STRESS PERIOD   27   TIME STEP   21
 
 SOLVING FOR HEAD 
                                                   Max.-Head-Change                         Max.-Flux-Residual
  Residual-Control   Outer-Iter.   Inner-Iter.     Column Row Layer    Maximum-Head-Change  Column Row Layer    Maximum-Flux-Residual          L2-NORM 
          0                 1           2             3    3     1       0.2483298307E-02       3    3    1         0.1299606576E+00      0.4392535458E+00
          0                 2           2             3    3     1      -0.2415573081E-03       3    3    1        -0.1299607258E-01      0.4406627624E-01
          0                 3           1             3    3     1       0.1644915639E-04       3    3    1         0.9097254006E-03      0.3228302713E-02

    ------------------------------------------------
       NWT REQUIRED            3 OUTER ITERATIONS 
       AND A TOTAL OF          5 INNER ITERATIONS.
    ------------------------------------------------

 NO OUTPUT CONTROL FOR STRESS PERIOD   27   TIME STEP   22
 
 SOLVING FOR HEAD 
                                                   Max.-Head-Change                         Max.-Flux-Residual
  Residual-Control   Outer-Iter.   Inner-Iter.     Column Row Layer    Maximum-Head-Change  Column Row Layer    Maximum-Flux-Residual          L2-NORM 
          0                 1           2             3    3     1       0.2464776776E-02       3    3    1         0.1289820843E+00      0.4353391974E+00
          0                 2           2             3    3     1      -0.2397556673E-03       3    3    1        -0.1289821518E-01      0.4370713535E-01
          0                 3           1             3    3     1       0.1632647183E-04       3    3    1         0.9028753914E-03      0.3215577883E-02

    ------------------------------------------------
       NWT REQUIRED            3 OUTER ITERATIONS 
       AND A TOTAL OF          5 INNER ITERATIONS.
    ------------------------------------------------

 NO OUTPUT CONTROL FOR STRESS PERIOD   27   TIME STEP   23
 
 SOLVING FOR HEAD 
                                                   Max.-Head-Change                         Max.-Flux-Residual
  Residual-Control   Outer-Iter.   Inner-Iter.     Column Row Layer    Maximum-Head-Change  Column Row Layer    Maximum-Flux-Residual          L2-NORM 
          0                 1           2             3    3     1       0.2446834519E-02       3    3    1         0.1280342716E+00      0.4317798369E+00
          0                 2           2             3    3     1      -0.2380103746E-03       3    3    1        -0.1280343390E-01      0.4338210504E-01
          0                 3           1             3    3     1       0.1620762421E-04       3    3    1         0.8962407067E-03      0.3204999002E-02

    ------------------------------------------------
       NWT REQUIRED            3 OUTER ITERATIONS 
       AND A TOTAL OF          5 INNER ITERATIONS.
    ------------------------------------------------

 NO OUTPUT CONTROL FOR STRESS PERIOD   27   TIME STEP   24
 
 SOLVING FOR HEAD 
                                                   Max.-Head-Change                         Max.-Flux-Residual
  Residual-Control   Outer-Iter.   Inner-Iter.     Column Row Layer    Maximum-Head-Change  Column Row Layer    Maximum-Flux-Residual          L2-NORM 
          0                 1           2             3    3     1       0.2428988587E-02       3    3    1         0.1270914757E+00      0.4285154097E+00
          0                 2           2             3    3     1      -0.2362744510E-03       3    3    1        -0.1270915425E-01      0.4308523221E-01
          0                 3           1             3    3     1       0.1608941373E-04       3    3    1         0.8896411127E-03      0.3196869384E-02

    ------------------------------------------------
       NWT REQUIRED            3 OUTER ITERATIONS 
       AND A TOTAL OF          5 INNER ITERATIONS.
    ------------------------------------------------

 NO OUTPUT CONTROL FOR STRESS PERIOD   27   TIME STEP   25
 
 SOLVING FOR HEAD 
                                                   Max.-Head-Change                         Max.-Flux-Residual
  Residual-Control   Outer-Iter.   Inner-Iter.     Column Row Layer    Maximum-Head-Change  Column Row Layer    Maximum-Flux-Residual          L2-NORM 
          0                 1           2             3    3     1       0.2411474238E-02       3    3    1         0.1261661830E+00      0.4255284513E+00
          0                 2           2             3    3     1      -0.2345707816E-03       3    3    1        -0.1261662492E-01      0.4281539247E-01
          0                 3           1             3    3     1       0.1597340004E-04       3    3    1         0.8831640607E-03      0.3189595070E-02

    ------------------------------------------------
       NWT REQUIRED            3 OUTER ITERATIONS 
       AND A TOTAL OF          5 INNER ITERATIONS.
    ------------------------------------------------

 NO OUTPUT CONTROL FOR STRESS PERIOD   27   TIME STEP   26
 
 SOLVING FOR HEAD 
                                                   Max.-Head-Change                         Max.-Flux-Residual
  Residual-Control   Outer-Iter.   Inner-Iter.     Column Row Layer    Maximum-Head-Change  Column Row Layer    Maximum-Flux-Residual          L2-NORM 
          0                 1           2             3    3     1       0.2394285991E-02       3    3    1         0.1252580827E+00      0.4227761197E+00
          0                 2           2             3    3     1      -0.2328988327E-03       3    3    1        -0.1252581482E-01      0.4256766462E-01
          0                 3           1             3    3     1       0.1585954718E-04       3    3    1         0.8768073699E-03      0.3184655113E-02

    ------------------------------------------------
       NWT REQUIRED            3 OUTER ITERATIONS 
       AND A TOTAL OF          5 INNER ITERATIONS.
    ------------------------------------------------

 NO OUTPUT CONTROL FOR STRESS PERIOD   27   TIME STEP   27
 
 SOLVING FOR HEAD 
                                                   Max.-Head-Change                         Max.-Flux-Residual
  Residual-Control   Outer-Iter.   Inner-Iter.     Column Row Layer    Maximum-Head-Change  Column Row Layer    Maximum-Flux-Residual          L2-NORM 
          0                 1           2             3    3     1       0.2377417415E-02       3    3    1         0.1243668904E+00      0.4202367513E+00
          0                 2           2             3    3     1      -0.2312579792E-03       3    3    1        -0.1243669553E-01      0.4234072578E-01
          0                 3           1             3    3     1       0.1574781089E-04       3    3    1         0.8705690118E-03      0.3181398709E-02

    ------------------------------------------------
       NWT REQUIRED            3 OUTER ITERATIONS 
       AND A TOTAL OF          5 INNER ITERATIONS.
    ------------------------------------------------

 NO OUTPUT CONTROL FOR STRESS PERIOD   27   TIME STEP   28
 
 SOLVING FOR HEAD 
                                                   Max.-Head-Change                         Max.-Flux-Residual
  Residual-Control   Outer-Iter.   Inner-Iter.     Column Row Layer    Maximum-Head-Change  Column Row Layer    Maximum-Flux-Residual          L2-NORM 
          0                 1           2             3    3     1       0.2360625344E-02       3    3    1         0.1234797633E+00      0.4178805274E+00
          0                 2           2             3    3     1      -0.2296245677E-03       3    3    1        -0.1234798278E-01      0.4213091684E-01
          0                 3           1             3    3     1       0.1563658155E-04       3    3    1         0.8643590995E-03      0.3179031146E-02

    ------------------------------------------------
       NWT REQUIRED            3 OUTER ITERATIONS 
       AND A TOTAL OF          5 INNER ITERATIONS.
    ------------------------------------------------

 NO OUTPUT CONTROL FOR STRESS PERIOD   27   TIME STEP   29
 
 SOLVING FOR HEAD 
                                                   Max.-Head-Change                         Max.-Flux-Residual
  Residual-Control   Outer-Iter.   Inner-Iter.     Column Row Layer    Maximum-Head-Change  Column Row Layer    Maximum-Flux-Residual          L2-NORM 
          0                 1           2             3    3     1       0.2344382927E-02       3    3    1         0.1226216217E+00      0.4156908749E+00
          0                 2           2             3    3     1      -0.2280446224E-03       3    3    1        -0.1226216856E-01      0.4193755721E-01
          0                 3           1             3    3     1       0.1552899296E-04       3    3    1         0.8583521026E-03      0.3177968452E-02

    ------------------------------------------------
       NWT REQUIRED            3 OUTER ITERATIONS 
       AND A TOTAL OF          5 INNER ITERATIONS.
    ------------------------------------------------

 NO OUTPUT CONTROL FOR STRESS PERIOD   27   TIME STEP   30



 STREAM LISTING     PERIOD     27   STEP       30

 LAYER ROW COL. STREAM  RCH.  FLOW INTO     FLOW TO   FLOW OUT OF   OVRLND.     DIRECT     STREAM       STREAM     STREAM     STREAM   STREAMBED  STREAMBED
                SEG.NO.  NO.  STRM. RCH.    AQUIFER    STRM. RCH.    RUNOFF     PRECIP       ET          HEAD       DEPTH      WIDTH   CONDCTNC.   GRADIENT

   1    1    1     1     1    3.1499E+01  2.7310E-01   3.1226E+01  0.000E+00  0.000E+00  0.000E+00  1.09431E+03  1.262E+00  1.424E+01  6.407E-02  1.421E+00
   1    2    2     1     2    3.1226E+01  4.2272E-01   3.0803E+01  0.000E+00  0.000E+00  0.000E+00  1.08932E+03  1.259E+00  1.418E+01  9.925E-02  1.420E+00
   1    3    3     1     3    3.0803E+01  3.6028E-01   3.0443E+01  0.000E+00  0.000E+00  0.000E+00  1.08367E+03  1.256E+00  1.411E+01  8.466E-02  1.419E+00
   1    3    4     1     4    3.0443E+01  3.3158E-01   3.0111E+01  0.000E+00  0.000E+00  0.000E+00  1.07866E+03  1.253E+00  1.405E+01  7.797E-02  1.418E+00
   1    4    5     2     1    2.8111E+01  3.3470E-01   2.7777E+01  0.000E+00  0.000E+00  0.000E+00  1.07322E+03  1.291E+00  1.200E+01  7.800E-02  1.430E+00
   1    5    6     2     2    2.7777E+01  2.5697E-01   2.7520E+01  0.000E+00  0.000E+00  0.000E+00  1.06779E+03  1.283E+00  1.200E+01  6.000E-02  1.428E+00
   1    6    6     2     3    2.7520E+01  2.5654E-01   2.7263E+01  0.000E+00  0.000E+00  0.000E+00  1.06307E+03  1.276E+00  1.200E+01  6.000E-02  1.425E+00
   1    7    6     2     4    2.7263E+01  2.5611E-01   2.7007E+01  0.000E+00  0.000E+00  0.000E+00  1.05834E+03  1.268E+00  1.200E+01  6.000E-02  1.423E+00
   1    8    6     2     5    2.7007E+01  2.5567E-01   2.6751E+01  0.000E+00  0.000E+00  0.000E+00  1.05362E+03  1.261E+00  1.200E+01  6.000E-02  1.420E+00
   1    3    5     3     1    2.0000E+00  2.8252E-01   1.7175E+00  0.000E+00  0.000E+00  0.000E+00  1.07555E+03  1.909E+00  9.636E+00  7.227E-02  1.955E+00
   1    3    6     3     2    1.7175E+00  2.4905E-01   1.4684E+00  0.000E+00  0.000E+00  0.000E+00  1.07264E+03  1.727E+00  8.909E+00  6.682E-02  1.864E+00
   1    3    7     3     3    1.4684E+00  1.9718E-01   1.2712E+00  0.000E+00  0.000E+00  0.000E+00  1.06987E+03  1.555E+00  8.218E+00  5.547E-02  1.777E+00
   1    4    8     3     4    1.2712E+00  2.2567E-01   1.0456E+00  0.000E+00  0.000E+00  0.000E+00  1.06682E+03  1.364E+00  7.455E+00  6.709E-02  1.682E+00
   1    5    8     3     5    1.0456E+00  1.5790E-01   8.8768E-01  0.000E+00  0.000E+00  0.000E+00  1.06362E+03  1.164E+00  6.655E+00  4.991E-02  1.582E+00
   1    6    8     3     6    8.8768E-01  5.5980E-02   8.3170E-01  0.000E+00  0.000E+00  0.000E+00  1.06158E+03  1.036E+00  6.145E+00  1.844E-02  1.518E+00
   1    5   10     4     1    1.0000E+01  9.0919E-02   9.9091E+00  0.000E+00  0.000E+00  0.000E+00  1.07836E+03  6.368E-01  1.000E+01  2.500E-02  1.212E+00
   1    5    9     4     2    9.9091E+00  1.8158E-01   9.7275E+00  0.000E+00  0.000E+00  0.000E+00  1.07154E+03  6.315E-01  1.000E+01  5.000E-02  1.211E+00
   1    6    8     4     3    9.7275E+00  1.2689E-01   9.6006E+00  0.000E+00  0.000E+00  0.000E+00  1.06381E+03  6.256E-01  1.000E+01  3.500E-02  1.209E+00
   1    6    8     5     1    1.0432E+01  2.2686E-01   1.0205E+01  0.000E+00  0.000E+00  0.000E+00  1.05868E+03  6.790E-01  1.542E+01  6.166E-02  1.226E+00
   1    7    7     5     2    1.0205E+01  2.7894E-01   9.9265E+00  0.000E+00  0.000E+00  0.000E+00  1.05417E+03  6.732E-01  1.519E+01  7.594E-02  1.224E+00
   1    8    7     5     3    9.9265E+00  1.9221E-01   9.7343E+00  0.000E+00  0.000E+00  0.000E+00  1.04992E+03  6.676E-01  1.497E+01  5.241E-02  1.223E+00
   1    8    6     5     4    9.7343E+00  1.3577E-01   9.5985E+00  0.000E+00  0.000E+00  0.000E+00  1.04691E+03  6.637E-01  1.482E+01  3.706E-02  1.221E+00
   1    9    6     6     1    3.6350E+01  2.7151E-01   3.6078E+01  0.000E+00  0.000E+00  0.000E+00  1.04425E+03  1.525E+00  1.200E+01  6.000E-02  1.508E+00
   1   10    7     6     2    3.6078E+01  2.7109E-01   3.5807E+01  0.000E+00  0.000E+00  0.000E+00  1.03970E+03  1.518E+00  1.200E+01  6.000E-02  1.506E+00
   1   11    7     6     3    3.5807E+01  2.7068E-01   3.5537E+01  0.000E+00  0.000E+00  0.000E+00  1.03515E+03  1.511E+00  1.200E+01  6.000E-02  1.504E+00
   1   12    7     6     4    3.5537E+01  2.7027E-01   3.5266E+01  0.000E+00  0.000E+00  0.000E+00  1.03060E+03  1.504E+00  1.200E+01  6.000E-02  1.501E+00
   1   13    7     6     5    3.5266E+01  9.0748E-03   3.5257E+01  0.000E+00  0.000E+00  0.000E+00  1.02741E+03  1.501E+00  1.200E+01  2.400E-02  1.260E-01
   1   14    9     7     1    1.5000E+02  1.3473E+00   1.4865E+02  0.000E+00  0.000E+00  0.000E+00  1.03987E+03  2.288E+00  5.529E+01  5.593E-01  8.029E-01
   1   13    8     7     2    1.4865E+02  1.8584E+00   1.4679E+02  0.000E+00  0.000E+00  0.000E+00  1.03478E+03  2.279E+00  5.526E+01  6.148E-01  1.008E+00
   1   13    7     7     3    1.4679E+02  1.4842E+00   1.4531E+02  0.000E+00  0.000E+00  0.000E+00  1.02969E+03  2.270E+00  5.522E+01  5.584E-01  8.859E-01
   1   13    6     8     1    1.8057E+02  9.7124E-01   1.7960E+02  0.000E+00  0.000E+00  0.000E+00  1.02489E+03  3.017E+00  4.374E+01  4.457E-01  7.263E-01
   1   13    5     8     2    1.7960E+02  1.9615E-01   1.7940E+02  0.000E+00  0.000E+00  0.000E+00  1.01864E+03  3.013E+00  4.369E+01  4.452E-01  1.469E-01
   1   13    4     8     3    1.7940E+02 -2.4178E+00   1.8182E+02  0.000E+00  0.000E+00  0.000E+00  1.01239E+03  3.020E+00  4.379E+01  4.462E+00 -1.806E-01
   1   13    3     8     4    1.8182E+02 -3.6079E+00   1.8543E+02  0.000E+00  0.000E+00  0.000E+00  1.00616E+03  3.039E+00  4.406E+01  4.490E+00 -2.678E-01
   1   13    2     8     5    1.8543E+02 -2.5160E+00   1.8794E+02  0.000E+00  0.000E+00  0.000E+00  9.99933E+02  3.058E+00  4.434E+01  4.518E+00 -1.856E-01
   1   13    1     8     6    1.8794E+02 -1.9237E+00   1.8987E+02  0.000E+00  0.000E+00  0.000E+00  9.94946E+02  3.071E+00  4.453E+01  2.723E+00 -2.355E-01
   1    8    6     9     1    0.0000E+00  0.0000E+00   0.0000E+00  0.000E+00  0.000E+00  0.000E+00  1.07875E+03  0.000E+00  4.000E+00  0.000E+00  1.000E+00
   1    8    5     9     2    0.0000E+00  0.0000E+00   0.0000E+00  0.000E+00  0.000E+00  0.000E+00  1.07825E+03  0.000E+00  4.000E+00  0.000E+00  1.000E+00





UNSATURATED ZONE PACKAGE VOLUMETRIC BUDGET FOR  TIME STEP    30 STRESS PERIOD   27
  ------------------------------------------------------------------------------



     CUMULATIVE VOLUMES      L**3       RATES FOR THIS TIME STEP      L**3/T
     ------------------                 ------------------------

           IN:                                      IN:
           ---                                      ---
        INFILTRATION =  2829938530.4861          INFILTRATION =           0.8475

          OUT:                                     OUT:
          ----                                     ----
              UZF ET =   868507714.5305                UZF ET =           0.7500
        UZF RECHARGE =  1615139736.9048          UZF RECHARGE =           1.3687

            IN - OUT =   346291079.0508              IN - OUT =          -1.2712

          STORAGE:                                 STORAGE:
          --------                                 --------
      STORAGE CHANGE =   346287704.2235        STORAGE CHANGE =          -1.2712

 PERCENT DISCREPANCY IS DIFFERENCE BETWEEN IN-OUT MINUS CHANGE IN STORAGE
 DIVIDED BY THE AVERAGE OF IN AND OUT TIMES 100

 PERCENT DISCREPANCY =           0.00     PERCENT DISCREPANCY =           0.00






1
  VOLUMETRIC BUDGET FOR AGRICULTURAL FIELDS AT  END OF TIME STEP   30, STRESS PERIOD  27
  ------------------------------------------------------------------------------

     CUMULATIVE VOLUMES      L**3       RATES FOR THIS TIME STEP      L**3/T
     ------------------                 ------------------------

           IN:                                      IN:
           ---                                      ---
           AG WELLS      =  1742828032.0000             AG WELLS      =           0.0000
      DIVERSION SEGMENTS =  1029065024.0000        DIVERSION SEGMENTS =           0.0000
           GW IRRIGATION =           0.0000             GW IRRIGATION =           0.0000
           SW IRRIGATION =           0.0000             SW IRRIGATION =           0.0000
        SYSTEM LOSSES GW =           0.0000          SYSTEM LOSSES GW =           0.0000
        SYSTEM LOSSES SW =           0.0000          SYSTEM LOSSES SW =           0.0000

                TOTAL IN =  2771892992.0000                  TOTAL IN =           0.0000

          OUT:                                     OUT:
          ----                                     ----
           AG WELLS      =           0.0000             AG WELLS      =           0.0000
      DIVERSION SEGMENTS =           0.0000        DIVERSION SEGMENTS =           0.0000
           GW IRRIGATION =  1742828032.0000             GW IRRIGATION =           0.0000
           SW IRRIGATION =  1029085184.0000             SW IRRIGATION =           0.0000
        SYSTEM LOSSES GW =           0.0000          SYSTEM LOSSES GW =           0.0000
        SYSTEM LOSSES SW =           0.0000          SYSTEM LOSSES SW =           0.0000

               TOTAL OUT =  2771913216.0000                 TOTAL OUT =           0.0000

                IN - OUT =      -20224.0000                  IN - OUT =           0.0000

     PERCENT DISCREPANCY =          -0.00         PERCENT DISCREPANCY =           0.00



1
  VOLUMETRIC BUDGET FOR ENTIRE MODEL AT END OF TIME STEP   30, STRESS PERIOD  27
  ------------------------------------------------------------------------------

     CUMULATIVE VOLUMES      L**3       RATES FOR THIS TIME STEP      L**3/T
     ------------------                 ------------------------

           IN:                                      IN:
           ---                                      ---
             STORAGE     =  1769595904.0000               STORAGE     =           0.2282
       CONSTANT HEAD     =           0.0000         CONSTANT HEAD     =           0.0000
     HEAD DEP BOUNDS     =    19583172.0000       HEAD DEP BOUNDS     =           0.2865
      STREAM LEAKAGE     =   814218752.0000        STREAM LEAKAGE     =          12.0989
        UZF RECHARGE     =  1615139456.0000          UZF RECHARGE     =           1.3687
               GW ET     =           0.0000                 GW ET     =           0.0000
     SURFACE LEAKAGE     =           0.0000       SURFACE LEAKAGE     =           0.0000
           AG WELLS      =           0.0000             AG WELLS      =           0.0000

                TOTAL IN =  4218537472.0000                  TOTAL IN =          13.9824

          OUT:                                     OUT:
          ----                                     ----
             STORAGE     =  1720500864.0000               STORAGE     =           3.2263
       CONSTANT HEAD     =           0.0000         CONSTANT HEAD     =           0.0000
     HEAD DEP BOUNDS     =    19812926.0000       HEAD DEP BOUNDS     =           0.2908
      STREAM LEAKAGE     =   735328576.0000        STREAM LEAKAGE     =          10.4654
        UZF RECHARGE     =           0.0000          UZF RECHARGE     =           0.0000
               GW ET     =      106432.0312                 GW ET     =           0.0000
     SURFACE LEAKAGE     =           0.0000       SURFACE LEAKAGE     =           0.0000
           AG WELLS      =  1742828032.0000             AG WELLS      =           0.0000

               TOTAL OUT =  4218576896.0000                 TOTAL OUT =          13.9826

                IN - OUT =      -39424.0000                  IN - OUT =      -1.9646E-04

     PERCENT DISCREPANCY =          -0.00         PERCENT DISCREPANCY =          -0.00






         TIME SUMMARY AT END OF TIME STEP   30 IN STRESS PERIOD   27
                    SECONDS     MINUTES      HOURS       DAYS        YEARS
                    -----------------------------------------------------------
   TIME STEP LENGTH  87667.      1461.1      24.352      1.0147     2.77799E-03
 STRESS PERIOD TIME 2.63000E+06  43833.      730.56      30.440     8.33397E-02
         TOTAL TIME 6.84668E+07 1.14111E+06  19019.      792.44      2.1696    
1
1
                            STRESS PERIOD NO.   28, LENGTH =   2630000.    
                            -----------------------------------------------

                              NUMBER OF TIME STEPS =    30

                               MULTIPLIER FOR DELT =     1.000

                            INITIAL TIME STEP SIZE =   87666.66    

 REUSING NON-PARAMETER GHB CELLS FROM LAST STRESS PERIOD

      2 GHB CELLS

 REUSING STREAM SEGMENT DATA FROM LAST STRESS PERIOD



            AREAL INFILTRATION RATE
 READING ON UNIT   19 WITH FORMAT: (FREE)              

            1           2           3           4           5           6           7           8           9          10
 ........................................................................................................................
   1   1.0000E-10  2.0000E-10   0.000       0.000       0.000       0.000       0.000       0.000       0.000       0.000    
   2   2.0000E-10  1.0000E-10  2.0000E-10   0.000       0.000      8.0000E-10  8.0000E-10  5.0000E-10   0.000       0.000    
   3    0.000      5.0000E-10  1.0000E-10  1.0000E-10  8.0000E-10  8.0000E-10  5.0000E-10  5.0000E-10   0.000       0.000    
   4   8.0000E-10  5.0000E-10  1.0000E-10  1.0000E-10  1.0000E-10  1.0000E-10  1.0000E-10  1.0000E-10  2.0000E-10   0.000    
   5   8.0000E-10  5.0000E-10  1.0000E-10  1.0000E-10  1.0000E-10  1.0000E-10  1.0000E-10  1.0000E-10  1.0000E-10  1.0000E-10
   6   8.0000E-10  5.0000E-10  5.0000E-10  2.0000E-10  2.0000E-10  1.0000E-10  1.0000E-10  1.0000E-10  1.0000E-10  5.0000E-10
   7   8.0000E-10  5.0000E-10  5.0000E-10  2.0000E-10  2.0000E-10  1.0000E-10  1.0000E-10  2.0000E-10  2.0000E-10   0.000    
   8    0.000      5.0000E-10  5.0000E-10  2.0000E-10  2.0000E-10  1.0000E-10  1.0000E-10  2.0000E-10  5.0000E-10   0.000    
   9    0.000      5.0000E-10  5.0000E-10  2.0000E-10  2.0000E-10  1.0000E-10  1.0000E-10  2.0000E-10  5.0000E-10   0.000    
  10    0.000      5.0000E-10  5.0000E-10  2.0000E-10  2.0000E-10  1.0000E-10  1.0000E-10  2.0000E-10  5.0000E-10  8.0000E-10
  11    0.000      1.0000E-10  1.0000E-10  1.0000E-10  1.0000E-10  1.0000E-10  1.0000E-10  2.0000E-10  5.0000E-10   0.000    
  12   1.0000E-10  1.0000E-10  1.0000E-10  1.0000E-10  1.0000E-10  1.0000E-10  1.0000E-10  1.0000E-10  2.0000E-10   0.000    
  13   1.0000E-10  1.0000E-10  2.0000E-10  2.0000E-10  2.0000E-10  2.0000E-10  2.0000E-10  1.0000E-10  1.0000E-10   0.000    
  14    0.000      2.0000E-10  5.0000E-10  5.0000E-10  5.0000E-10  5.0000E-10  5.0000E-10  2.0000E-10  1.0000E-10   0.000    
  15    0.000       0.000      8.0000E-10  8.0000E-10  8.0000E-10  8.0000E-10   0.000       0.000       0.000       0.000    

                  ET RATE =  5.000000E-10

 USING ET EXTINCTION DEPTH FROM PREVIOUS STRESS PERIOD. CURRENT PERIOD IS:      28

 USING EXTINCTION WATER CONTENT FROM PREVIOUS STRESS PERIOD. CURRENT PERIOD IS:      28

 USING AIR ENTRY PRESSURE FROM PREVIOUS STRESS PERIOD. CURRENT PERIOD IS:      28

 USING ROOT PRESSURE HEAD FROM PREVIOUS STRESS PERIOD. CURRENT PERIOD IS:      28

 USING ROOT ACTIVITY FROM PREVIOUS STRESS PERIOD. CURRENT PERIOD IS:      28

 PROCESSING AG STRESS PERIOD DATA

 READING AG STRESS PERIOD DATA

 READING IRRIGATION SEGMENT

 READING IRRIGATION WELL

 READING SUPPLEMENTAL WELL

 END PROCESSING AG STRESS PERIOD DATA OPTIONS
 
 SOLVING FOR HEAD 
                                                   Max.-Head-Change                         Max.-Flux-Residual
  Residual-Control   Outer-Iter.   Inner-Iter.     Column Row Layer    Maximum-Head-Change  Column Row Layer    Maximum-Flux-Residual          L2-NORM 
          0                 1           2             4   13     1       0.6842987819E-02       4   13    1         0.3923409164E+00      0.8798239747E+00
          0                 2           2             4   13     1      -0.6583945835E-03       4   13    1        -0.3881152708E-01      0.8654998506E-01
          0                 3           1             4   13     1       0.4415975128E-04       4   13    1         0.2676337044E-02      0.6040139126E-02

    ------------------------------------------------
       NWT REQUIRED            3 OUTER ITERATIONS 
       AND A TOTAL OF          5 INNER ITERATIONS.
    ------------------------------------------------

 NO OUTPUT CONTROL FOR STRESS PERIOD   28   TIME STEP    1
 
 SOLVING FOR HEAD 
                                                   Max.-Head-Change                         Max.-Flux-Residual
  Residual-Control   Outer-Iter.   Inner-Iter.     Column Row Layer    Maximum-Head-Change  Column Row Layer    Maximum-Flux-Residual          L2-NORM 
          0                 1           2             4   13     1       0.1007230461E-01       4   13    1         0.5786658736E+00      0.1201689654E+01
          0                 2           2             4   13     1      -0.9690356691E-03       4   13    1        -0.5724024135E-01      0.1176533717E+00
          0                 3           1             4   13     1       0.6497948718E-04       4   13    1         0.3946255336E-02      0.8095256201E-02

    ------------------------------------------------
       NWT REQUIRED            3 OUTER ITERATIONS 
       AND A TOTAL OF          5 INNER ITERATIONS.
    ------------------------------------------------

 NO OUTPUT CONTROL FOR STRESS PERIOD   28   TIME STEP    2
 
 SOLVING FOR HEAD 
                                                   Max.-Head-Change                         Max.-Flux-Residual
  Residual-Control   Outer-Iter.   Inner-Iter.     Column Row Layer    Maximum-Head-Change  Column Row Layer    Maximum-Flux-Residual          L2-NORM 
          0                 1           2             2   13     1       0.9132010974E-02       4   13    1         0.5235632704E+00      0.1132377883E+01
          0                 2           2             4   13     1      -0.8773259652E-03       4   13    1        -0.5178334218E-01      0.1110200116E+00
          0                 3           1             4   13     1       0.5881767962E-04       4   13    1         0.3569274167E-02      0.7672948740E-02

    ------------------------------------------------
       NWT REQUIRED            3 OUTER ITERATIONS 
       AND A TOTAL OF          5 INNER ITERATIONS.
    ------------------------------------------------

 NO OUTPUT CONTROL FOR STRESS PERIOD   28   TIME STEP    3
 
 SOLVING FOR HEAD 
                                                   Max.-Head-Change                         Max.-Flux-Residual
  Residual-Control   Outer-Iter.   Inner-Iter.     Column Row Layer    Maximum-Head-Change  Column Row Layer    Maximum-Flux-Residual          L2-NORM 
          0                 1           2             2   13     1       0.8427415465E-02       2   13    1         0.4759466336E+00      0.1070549255E+01
          0                 2           2             4   13     1      -0.7949561353E-03       4   13    1        -0.4688388653E-01      0.1051072798E+00
          0                 3           1             4   13     1       0.5329129801E-04       4   13    1         0.3231271166E-02      0.7292342648E-02

    ------------------------------------------------
       NWT REQUIRED            3 OUTER ITERATIONS 
       AND A TOTAL OF          5 INNER ITERATIONS.
    ------------------------------------------------

 NO OUTPUT CONTROL FOR STRESS PERIOD   28   TIME STEP    4
 
 SOLVING FOR HEAD 
                                                   Max.-Head-Change                         Max.-Flux-Residual
  Residual-Control   Outer-Iter.   Inner-Iter.     Column Row Layer    Maximum-Head-Change  Column Row Layer    Maximum-Flux-Residual          L2-NORM 
          0                 1           2             2   13     1       0.7777864046E-02       2   13    1         0.4392038445E+00      0.1015457100E+01
          0                 2           2             2   13     1      -0.7218942811E-03       4   13    1        -0.4248039903E-01      0.9987975605E-01
          0                 3           1             4   13     1       0.4832029391E-04       4   13    1         0.2927335777E-02      0.6974342444E-02

    ------------------------------------------------
       NWT REQUIRED            3 OUTER ITERATIONS 
       AND A TOTAL OF          5 INNER ITERATIONS.
    ------------------------------------------------

 NO OUTPUT CONTROL FOR STRESS PERIOD   28   TIME STEP    5
 
 SOLVING FOR HEAD 
                                                   Max.-Head-Change                         Max.-Flux-Residual
  Residual-Control   Outer-Iter.   Inner-Iter.     Column Row Layer    Maximum-Head-Change  Column Row Layer    Maximum-Flux-Residual          L2-NORM 
          0                 1           2             2   13     1       0.7179133150E-02       2   13    1         0.4053386843E+00      0.9664109320E+00
          0                 2           2             2   13     1      -0.6665913025E-03       2   13    1        -0.3868630896E-01      0.9519867964E-01
          0                 3           1             4   13     1       0.4384265051E-04       4   13    1         0.2653694980E-02      0.6686127453E-02

    ------------------------------------------------
       NWT REQUIRED            3 OUTER ITERATIONS 
       AND A TOTAL OF          5 INNER ITERATIONS.
    ------------------------------------------------

 NO OUTPUT CONTROL FOR STRESS PERIOD   28   TIME STEP    6
 
 SOLVING FOR HEAD 
                                                   Max.-Head-Change                         Max.-Flux-Residual
  Residual-Control   Outer-Iter.   Inner-Iter.     Column Row Layer    Maximum-Head-Change  Column Row Layer    Maximum-Flux-Residual          L2-NORM 
          0                 1           2             2   13     1       0.6627252195E-02       2   13    1         0.3741249124E+00      0.9227796320E+00
          0                 2           2             2   13     1      -0.6155555380E-03       2   13    1        -0.3571899456E-01      0.9105505213E-01
          0                 3           1             4   13     1       0.3983817520E-04       4   13    1         0.2409090295E-02      0.6434447659E-02

    ------------------------------------------------
       NWT REQUIRED            3 OUTER ITERATIONS 
       AND A TOTAL OF          5 INNER ITERATIONS.
    ------------------------------------------------

 NO OUTPUT CONTROL FOR STRESS PERIOD   28   TIME STEP    7
 
 SOLVING FOR HEAD 
                                                   Max.-Head-Change                         Max.-Flux-Residual
  Residual-Control   Outer-Iter.   Inner-Iter.     Column Row Layer    Maximum-Head-Change  Column Row Layer    Maximum-Flux-Residual          L2-NORM 
          0                 1           2             2   13     1       0.6118532100E-02       2   13    1         0.3453540115E+00      0.8840281346E+00
          0                 2           2             2   13     1      -0.5684684261E-03       2   13    1        -0.3298144139E-01      0.8738288210E-01
          0                 3           1             2   13     1       0.3624529234E-04       4   13    1         0.2188265103E-02      0.6213123274E-02

    ------------------------------------------------
       NWT REQUIRED            3 OUTER ITERATIONS 
       AND A TOTAL OF          5 INNER ITERATIONS.
    ------------------------------------------------

 NO OUTPUT CONTROL FOR STRESS PERIOD   28   TIME STEP    8
 
 SOLVING FOR HEAD 
                                                   Max.-Head-Change                         Max.-Flux-Residual
  Residual-Control   Outer-Iter.   Inner-Iter.     Column Row Layer    Maximum-Head-Change  Column Row Layer    Maximum-Flux-Residual          L2-NORM 
          0                 1           2             2   13     1       0.5649581997E-02       2   13    1         0.3188339899E+00      0.8496231904E+00
          0                 2           2             2   13     1      -0.5250296074E-03       2   13    1        -0.3045612094E-01      0.8413068477E-01
          0                 3           1             2   13     1       0.3349460635E-04       2   13    1         0.1996779069E-02      0.6021694022E-02

    ------------------------------------------------
       NWT REQUIRED            3 OUTER ITERATIONS 
       AND A TOTAL OF          5 INNER ITERATIONS.
    ------------------------------------------------

 NO OUTPUT CONTROL FOR STRESS PERIOD   28   TIME STEP    9
 
 SOLVING FOR HEAD 
                                                   Max.-Head-Change                         Max.-Flux-Residual
  Residual-Control   Outer-Iter.   Inner-Iter.     Column Row Layer    Maximum-Head-Change  Column Row Layer    Maximum-Flux-Residual          L2-NORM 
          0                 1           2             2   13     1       0.5217384092E-02       2   13    1         0.2943940588E+00      0.8190963238E+00
          0                 2           2             2   13     1      -0.4849610318E-03       2   13    1        -0.2812694972E-01      0.8125527062E-01
          0                 3           1             2   13     1       0.3092860646E-04       2   13    1         0.1843488109E-02      0.5852783730E-02

    ------------------------------------------------
       NWT REQUIRED            3 OUTER ITERATIONS 
       AND A TOTAL OF          5 INNER ITERATIONS.
    ------------------------------------------------

 NO OUTPUT CONTROL FOR STRESS PERIOD   28   TIME STEP   10
 
 SOLVING FOR HEAD 
                                                   Max.-Head-Change                         Max.-Flux-Residual
  Residual-Control   Outer-Iter.   Inner-Iter.     Column Row Layer    Maximum-Head-Change  Column Row Layer    Maximum-Flux-Residual          L2-NORM 
          0                 1           2             2   13     1       0.4818959435E-02       2   13    1         0.2718655169E+00      0.7920132515E+00
          0                 2           2             2   13     1      -0.4480317361E-03       2   13    1        -0.2598041764E-01      0.7870128443E-01
          0                 3           1             2   13     1       0.2860048876E-04       2   13    1         0.1704393639E-02      0.5708194680E-02

    ------------------------------------------------
       NWT REQUIRED            3 OUTER ITERATIONS 
       AND A TOTAL OF          5 INNER ITERATIONS.
    ------------------------------------------------

 NO OUTPUT CONTROL FOR STRESS PERIOD   28   TIME STEP   11
 
 SOLVING FOR HEAD 
                                                   Max.-Head-Change                         Max.-Flux-Residual
  Residual-Control   Outer-Iter.   Inner-Iter.     Column Row Layer    Maximum-Head-Change  Column Row Layer    Maximum-Flux-Residual          L2-NORM 
          0                 1           2             2   13     1       0.4451668096E-02       2   13    1         0.2510989303E+00      0.7679700868E+00
          0                 2           2             2   13     1      -0.4139329347E-03       2   13    1        -0.2399854343E-01      0.7644292551E-01
          0                 3           1             3    3     1       0.2782763953E-04       2   13    1         0.1574362441E-02      0.5583467398E-02

    ------------------------------------------------
       NWT REQUIRED            3 OUTER ITERATIONS 
       AND A TOTAL OF          5 INNER ITERATIONS.
    ------------------------------------------------

 NO OUTPUT CONTROL FOR STRESS PERIOD   28   TIME STEP   12
 
 SOLVING FOR HEAD 
                                                   Max.-Head-Change                         Max.-Flux-Residual
  Residual-Control   Outer-Iter.   Inner-Iter.     Column Row Layer    Maximum-Head-Change  Column Row Layer    Maximum-Flux-Residual          L2-NORM 
          0                 1           2             3    3     1       0.4165933130E-02       2   13    1         0.2319611591E+00      0.7466415244E+00
          0                 2           2             3    3     1      -0.4052320313E-03       2   13    1        -0.2217225176E-01      0.7444398716E-01
          0                 3           1             3    3     1       0.2759479657E-04       3    3    1         0.1527475463E-02      0.5471540797E-02

    ------------------------------------------------
       NWT REQUIRED            3 OUTER ITERATIONS 
       AND A TOTAL OF          5 INNER ITERATIONS.
    ------------------------------------------------

 NO OUTPUT CONTROL FOR STRESS PERIOD   28   TIME STEP   13
 
 SOLVING FOR HEAD 
                                                   Max.-Head-Change                         Max.-Flux-Residual
  Residual-Control   Outer-Iter.   Inner-Iter.     Column Row Layer    Maximum-Head-Change  Column Row Layer    Maximum-Flux-Residual          L2-NORM 
          0                 1           2             3    3     1       0.4131466045E-02       3    3    1         0.2163879075E+00      0.7276957198E+00
          0                 2           2             3    3     1      -0.4018793202E-03       3    3    1        -0.2163881349E-01      0.7267385858E-01
          0                 3           1             3    3     1       0.2736648970E-04       3    3    1         0.1514717389E-02      0.5377755240E-02

    ------------------------------------------------
       NWT REQUIRED            3 OUTER ITERATIONS 
       AND A TOTAL OF          5 INNER ITERATIONS.
    ------------------------------------------------

 NO OUTPUT CONTROL FOR STRESS PERIOD   28   TIME STEP   14
 
 SOLVING FOR HEAD 
                                                   Max.-Head-Change                         Max.-Flux-Residual
  Residual-Control   Outer-Iter.   Inner-Iter.     Column Row Layer    Maximum-Head-Change  Column Row Layer    Maximum-Flux-Residual          L2-NORM 
          0                 1           2             3    3     1       0.4097672389E-02       3    3    1         0.2146008278E+00      0.7108368674E+00
          0                 2           2             3    3     1      -0.3985921149E-03       3    3    1        -0.2146010526E-01      0.7108360815E-01
          0                 3           1             3    3     1       0.2714264341E-04       3    3    1         0.1502207807E-02      0.5293855322E-02

    ------------------------------------------------
       NWT REQUIRED            3 OUTER ITERATIONS 
       AND A TOTAL OF          5 INNER ITERATIONS.
    ------------------------------------------------

 NO OUTPUT CONTROL FOR STRESS PERIOD   28   TIME STEP   15
 
 SOLVING FOR HEAD 
                                                   Max.-Head-Change                         Max.-Flux-Residual
  Residual-Control   Outer-Iter.   Inner-Iter.     Column Row Layer    Maximum-Head-Change  Column Row Layer    Maximum-Flux-Residual          L2-NORM 
          0                 1           2             3    3     1       0.4064304089E-02       3    3    1         0.2128361531E+00      0.6958620376E+00
          0                 2           2             3    3     1      -0.3953462854E-03       3    3    1        -0.2128363754E-01      0.6970722211E-01
          0                 3           1             3    3     1       0.2692161424E-04       3    3    1         0.1489855060E-02      0.5224493281E-02

    ------------------------------------------------
       NWT REQUIRED            3 OUTER ITERATIONS 
       AND A TOTAL OF          5 INNER ITERATIONS.
    ------------------------------------------------

 NO OUTPUT CONTROL FOR STRESS PERIOD   28   TIME STEP   16
 
 SOLVING FOR HEAD 
                                                   Max.-Head-Change                         Max.-Flux-Residual
  Residual-Control   Outer-Iter.   Inner-Iter.     Column Row Layer    Maximum-Head-Change  Column Row Layer    Maximum-Flux-Residual          L2-NORM 
          0                 1           2             3    3     1       0.4031828078E-02       3    3    1         0.2111185558E+00      0.6825062121E+00
          0                 2           2             3    3     1      -0.3921872515E-03       3    3    1        -0.2111187758E-01      0.6846646195E-01
          0                 3           1             3    3     1       0.2670649599E-04       3    3    1         0.1477831865E-02      0.5163964984E-02

    ------------------------------------------------
       NWT REQUIRED            3 OUTER ITERATIONS 
       AND A TOTAL OF          5 INNER ITERATIONS.
    ------------------------------------------------

 NO OUTPUT CONTROL FOR STRESS PERIOD   28   TIME STEP   17
 
 SOLVING FOR HEAD 
                                                   Max.-Head-Change                         Max.-Flux-Residual
  Residual-Control   Outer-Iter.   Inner-Iter.     Column Row Layer    Maximum-Head-Change  Column Row Layer    Maximum-Flux-Residual          L2-NORM 
          0                 1           2             2    2     1       0.4007601628E-02       3    3    1         0.2094221994E+00      0.6705678919E+00
          0                 2           2             2    2     1      -0.3898310317E-03       3    3    1        -0.2094224168E-01      0.6735989156E-01
          0                 3           1             2    2     1       0.2654604169E-04       3    3    1         0.1465957353E-02      0.5111512240E-02

    ------------------------------------------------
       NWT REQUIRED            3 OUTER ITERATIONS 
       AND A TOTAL OF          5 INNER ITERATIONS.
    ------------------------------------------------

 NO OUTPUT CONTROL FOR STRESS PERIOD   28   TIME STEP   18
 
 SOLVING FOR HEAD 
                                                   Max.-Head-Change                         Max.-Flux-Residual
  Residual-Control   Outer-Iter.   Inner-Iter.     Column Row Layer    Maximum-Head-Change  Column Row Layer    Maximum-Flux-Residual          L2-NORM 
          0                 1           2             2    2     1       0.3985997684E-02       2    2    1         0.2079281012E+00      0.6598892041E+00
          0                 2           2             2    2     1      -0.3877295452E-03       2    2    1        -0.2079285419E-01      0.6637274866E-01
          0                 3           1             2    2     1       0.2640293814E-04       2    2    1         0.1455500003E-02      0.5065965223E-02

    ------------------------------------------------
       NWT REQUIRED            3 OUTER ITERATIONS 
       AND A TOTAL OF          5 INNER ITERATIONS.
    ------------------------------------------------

 NO OUTPUT CONTROL FOR STRESS PERIOD   28   TIME STEP   19
 
 SOLVING FOR HEAD 
                                                   Max.-Head-Change                         Max.-Flux-Residual
  Residual-Control   Outer-Iter.   Inner-Iter.     Column Row Layer    Maximum-Head-Change  Column Row Layer    Maximum-Flux-Residual          L2-NORM 
          0                 1           2             2    2     1       0.3964726182E-02       2    2    1         0.2068079613E+00      0.6503054480E+00
          0                 2           2             2    2     1      -0.3856603967E-03       2    2    1        -0.2068083947E-01      0.6548934173E-01
          0                 3           1             2    2     1       0.2626203684E-04       2    2    1         0.1447658962E-02      0.5027595918E-02

    ------------------------------------------------
       NWT REQUIRED            3 OUTER ITERATIONS 
       AND A TOTAL OF          5 INNER ITERATIONS.
    ------------------------------------------------

 NO OUTPUT CONTROL FOR STRESS PERIOD   28   TIME STEP   20
 
 SOLVING FOR HEAD 
                                                   Max.-Head-Change                         Max.-Flux-Residual
  Residual-Control   Outer-Iter.   Inner-Iter.     Column Row Layer    Maximum-Head-Change  Column Row Layer    Maximum-Flux-Residual          L2-NORM 
          0                 1           2             2    2     1       0.3943694053E-02       2    2    1         0.2057004855E+00      0.6416786305E+00
          0                 2           2             2    2     1      -0.3836145338E-03       2    2    1        -0.2057009119E-01      0.6469482140E-01
          0                 3           1             2    2     1       0.2612272172E-04       2    2    1         0.1439906615E-02      0.4994133306E-02

    ------------------------------------------------
       NWT REQUIRED            3 OUTER ITERATIONS 
       AND A TOTAL OF          5 INNER ITERATIONS.
    ------------------------------------------------

 NO OUTPUT CONTROL FOR STRESS PERIOD   28   TIME STEP   21
 
 SOLVING FOR HEAD 
                                                   Max.-Head-Change                         Max.-Flux-Residual
  Residual-Control   Outer-Iter.   Inner-Iter.     Column Row Layer    Maximum-Head-Change  Column Row Layer    Maximum-Flux-Residual          L2-NORM 
          0                 1           2             2    2     1       0.3923071791E-02       2    2    1         0.2046145662E+00      0.6339071405E+00
          0                 2           2             2    2     1      -0.3816085387E-03       2    2    1        -0.2046149852E-01      0.6398202627E-01
          0                 3           1             2    2     1       0.2598612077E-04       2    2    1         0.1432305111E-02      0.4965837183E-02

    ------------------------------------------------
       NWT REQUIRED            3 OUTER ITERATIONS 
       AND A TOTAL OF          5 INNER ITERATIONS.
    ------------------------------------------------

 NO OUTPUT CONTROL FOR STRESS PERIOD   28   TIME STEP   22
 
 SOLVING FOR HEAD 
                                                   Max.-Head-Change                         Max.-Flux-Residual
  Residual-Control   Outer-Iter.   Inner-Iter.     Column Row Layer    Maximum-Head-Change  Column Row Layer    Maximum-Flux-Residual          L2-NORM 
          0                 1           2             2    2     1       0.3902678731E-02       2    2    1         0.2035407526E+00      0.6268608861E+00
          0                 2           2             2    2     1      -0.3796248400E-03       2    2    1        -0.2035411650E-01      0.6333703858E-01
          0                 3           1             2    2     1       0.2585103808E-04       2    2    1         0.1424788377E-02      0.4941503499E-02

    ------------------------------------------------
       NWT REQUIRED            3 OUTER ITERATIONS 
       AND A TOTAL OF          5 INNER ITERATIONS.
    ------------------------------------------------

 NO OUTPUT CONTROL FOR STRESS PERIOD   28   TIME STEP   23
 
 SOLVING FOR HEAD 
                                                   Max.-Head-Change                         Max.-Flux-Residual
  Residual-Control   Outer-Iter.   Inner-Iter.     Column Row Layer    Maximum-Head-Change  Column Row Layer    Maximum-Flux-Residual          L2-NORM 
          0                 1           2             2    2     1       0.3882596946E-02       2    2    1         0.2024833956E+00      0.6204798639E+00
          0                 2           2             2    2     1      -0.3776714194E-03       2    2    1        -0.2024838009E-01      0.6275431093E-01
          0                 3           1             2    2     1       0.2571801753E-04       2    2    1         0.1417386843E-02      0.4921201014E-02

    ------------------------------------------------
       NWT REQUIRED            3 OUTER ITERATIONS 
       AND A TOTAL OF          5 INNER ITERATIONS.
    ------------------------------------------------

 NO OUTPUT CONTROL FOR STRESS PERIOD   28   TIME STEP   24
 
 SOLVING FOR HEAD 
                                                   Max.-Head-Change                         Max.-Flux-Residual
  Residual-Control   Outer-Iter.   Inner-Iter.     Column Row Layer    Maximum-Head-Change  Column Row Layer    Maximum-Flux-Residual          L2-NORM 
          0                 1           2             2    2     1       0.3862821996E-02       2    2    1         0.2014421779E+00      0.6146644564E+00
          0                 2           2             2    2     1      -0.3757478459E-03       2    2    1        -0.2014425766E-01      0.6222472205E-01
          0                 3           1             2    2     1       0.2558702952E-04       2    2    1         0.1410098273E-02      0.4903680940E-02

    ------------------------------------------------
       NWT REQUIRED            3 OUTER ITERATIONS 
       AND A TOTAL OF          5 INNER ITERATIONS.
    ------------------------------------------------

 NO OUTPUT CONTROL FOR STRESS PERIOD   28   TIME STEP   25
 
 SOLVING FOR HEAD 
                                                   Max.-Head-Change                         Max.-Flux-Residual
  Residual-Control   Outer-Iter.   Inner-Iter.     Column Row Layer    Maximum-Head-Change  Column Row Layer    Maximum-Flux-Residual          L2-NORM 
          0                 1           2             2    2     1       0.3843348728E-02       2    2    1         0.2004168692E+00      0.6093479278E+00
          0                 2           2             2    2     1      -0.3738536182E-03       2    2    1        -0.2004172616E-01      0.6174169861E-01
          0                 3           1             2    2     1       0.2545803975E-04       2    2    1         0.1402921061E-02      0.4888408550E-02

    ------------------------------------------------
       NWT REQUIRED            3 OUTER ITERATIONS 
       AND A TOTAL OF          5 INNER ITERATIONS.
    ------------------------------------------------

 NO OUTPUT CONTROL FOR STRESS PERIOD   28   TIME STEP   26
 
 SOLVING FOR HEAD 
                                                   Max.-Head-Change                         Max.-Flux-Residual
  Residual-Control   Outer-Iter.   Inner-Iter.     Column Row Layer    Maximum-Head-Change  Column Row Layer    Maximum-Flux-Residual          L2-NORM 
          0                 1           2             2    2     1       0.3824084611E-02       2    2    1         0.1994026292E+00      0.6044752839E+00
          0                 2           2             2    2     1      -0.3719797351E-03       2    2    1        -0.1994030151E-01      0.6130030977E-01
          0                 3           1             2    2     1       0.2533043499E-04       2    2    1         0.1395821333E-02      0.4876006628E-02

    ------------------------------------------------
       NWT REQUIRED            3 OUTER ITERATIONS 
       AND A TOTAL OF          5 INNER ITERATIONS.
    ------------------------------------------------

 NO OUTPUT CONTROL FOR STRESS PERIOD   28   TIME STEP   27
 
 SOLVING FOR HEAD 
                                                   Max.-Head-Change                         Max.-Flux-Residual
  Residual-Control   Outer-Iter.   Inner-Iter.     Column Row Layer    Maximum-Head-Change  Column Row Layer    Maximum-Flux-Residual          L2-NORM 
          0                 1           2             2    2     1       0.3805200700E-02       2    2    1         0.1984083800E+00      0.5999958885E+00
          0                 2           2             2    2     1      -0.3701428367E-03       2    2    1        -0.1984087598E-01      0.6089572706E-01
          0                 3           1             2    2     1       0.2520535009E-04       2    2    1         0.1388861578E-02      0.4865746300E-02

    ------------------------------------------------
       NWT REQUIRED            3 OUTER ITERATIONS 
       AND A TOTAL OF          5 INNER ITERATIONS.
    ------------------------------------------------

 NO OUTPUT CONTROL FOR STRESS PERIOD   28   TIME STEP   28
 
 SOLVING FOR HEAD 
                                                   Max.-Head-Change                         Max.-Flux-Residual
  Residual-Control   Outer-Iter.   Inner-Iter.     Column Row Layer    Maximum-Head-Change  Column Row Layer    Maximum-Flux-Residual          L2-NORM 
          0                 1           2             2    2     1       0.3786516047E-02       2    2    1         0.1974246972E+00      0.5958681252E+00
          0                 2           2             2    2     1      -0.3683253200E-03       2    2    1        -0.1974250710E-01      0.6052456539E-01
          0                 3           1             2    2     1       0.2508158346E-04       2    2    1         0.1381975736E-02      0.4857157456E-02

    ------------------------------------------------
       NWT REQUIRED            3 OUTER ITERATIONS 
       AND A TOTAL OF          5 INNER ITERATIONS.
    ------------------------------------------------

 NO OUTPUT CONTROL FOR STRESS PERIOD   28   TIME STEP   29
 
 SOLVING FOR HEAD 
                                                   Max.-Head-Change                         Max.-Flux-Residual
  Residual-Control   Outer-Iter.   Inner-Iter.     Column Row Layer    Maximum-Head-Change  Column Row Layer    Maximum-Flux-Residual          L2-NORM 
          0                 1           2             2    2     1       0.3768114811E-02       2    2    1         0.1964559192E+00      0.5920438834E+00
          0                 2           2             2    2     1      -0.3665353727E-03       2    2    1        -0.1964562870E-01      0.6018106546E-01
          0                 3           1             2    2     1       0.2495969483E-04       2    2    1         0.1375194258E-02      0.4850041143E-02

    ------------------------------------------------
       NWT REQUIRED            3 OUTER ITERATIONS 
       AND A TOTAL OF          5 INNER ITERATIONS.
    ------------------------------------------------

 NO OUTPUT CONTROL FOR STRESS PERIOD   28   TIME STEP   30



 STREAM LISTING     PERIOD     28   STEP       30

 LAYER ROW COL. STREAM  RCH.  FLOW INTO     FLOW TO   FLOW OUT OF   OVRLND.     DIRECT     STREAM       STREAM     STREAM     STREAM   STREAMBED  STREAMBED
                SEG.NO.  NO.  STRM. RCH.    AQUIFER    STRM. RCH.    RUNOFF     PRECIP       ET          HEAD       DEPTH      WIDTH   CONDCTNC.   GRADIENT

   1    1    1     1     1    5.7748E+01  3.6407E-01   5.7384E+01  0.000E+00  0.000E+00  0.000E+00  1.09455E+03  1.498E+00  1.799E+01  8.095E-02  1.499E+00
   1    2    2     1     2    5.7384E+01  5.6377E-01   5.6820E+01  0.000E+00  0.000E+00  0.000E+00  1.08955E+03  1.492E+00  1.793E+01  1.255E-01  1.497E+00
   1    3    3     1     3    5.6820E+01  4.8075E-01   5.6340E+01  0.000E+00  0.000E+00  0.000E+00  1.08390E+03  1.485E+00  1.786E+01  1.072E-01  1.495E+00
   1    3    4     1     4    5.6340E+01  4.4266E-01   5.5897E+01  0.000E+00  0.000E+00  0.000E+00  1.07889E+03  1.480E+00  1.781E+01  9.882E-02  1.493E+00
   1    4    5     2     1    5.3897E+01  3.8302E-01   5.3514E+01  0.000E+00  0.000E+00  0.000E+00  1.07384E+03  1.911E+00  1.200E+01  7.800E-02  1.637E+00
   1    5    6     2     2    5.3514E+01  2.9420E-01   5.3220E+01  0.000E+00  0.000E+00  0.000E+00  1.06841E+03  1.903E+00  1.200E+01  6.000E-02  1.634E+00
   1    6    6     2     3    5.3220E+01  2.9382E-01   5.2926E+01  0.000E+00  0.000E+00  0.000E+00  1.06369E+03  1.897E+00  1.200E+01  6.000E-02  1.632E+00
   1    7    6     2     4    5.2926E+01  2.9344E-01   5.2633E+01  0.000E+00  0.000E+00  0.000E+00  1.05897E+03  1.891E+00  1.200E+01  6.000E-02  1.630E+00
   1    8    6     2     5    5.2633E+01  2.9306E-01   5.2339E+01  0.000E+00  0.000E+00  0.000E+00  1.05424E+03  1.884E+00  1.200E+01  6.000E-02  1.628E+00
   1    3    5     3     1    2.0000E+00  2.8252E-01   1.7175E+00  0.000E+00  0.000E+00  0.000E+00  1.07555E+03  1.909E+00  9.636E+00  7.227E-02  1.955E+00
   1    3    6     3     2    1.7175E+00  2.4905E-01   1.4684E+00  0.000E+00  0.000E+00  0.000E+00  1.07264E+03  1.727E+00  8.909E+00  6.682E-02  1.864E+00
   1    3    7     3     3    1.4684E+00  1.9718E-01   1.2712E+00  0.000E+00  0.000E+00  0.000E+00  1.06987E+03  1.555E+00  8.218E+00  5.547E-02  1.777E+00
   1    4    8     3     4    1.2712E+00  2.2567E-01   1.0456E+00  0.000E+00  0.000E+00  0.000E+00  1.06682E+03  1.364E+00  7.455E+00  6.709E-02  1.682E+00
   1    5    8     3     5    1.0456E+00  1.5790E-01   8.8768E-01  0.000E+00  0.000E+00  0.000E+00  1.06362E+03  1.164E+00  6.655E+00  4.991E-02  1.582E+00
   1    6    8     3     6    8.8768E-01  5.5980E-02   8.3170E-01  0.000E+00  0.000E+00  0.000E+00  1.06158E+03  1.036E+00  6.145E+00  1.844E-02  1.518E+00
   1    5   10     4     1    1.0000E+01  9.0919E-02   9.9091E+00  0.000E+00  0.000E+00  0.000E+00  1.07836E+03  6.368E-01  1.000E+01  2.500E-02  1.212E+00
   1    5    9     4     2    9.9091E+00  1.8158E-01   9.7275E+00  0.000E+00  0.000E+00  0.000E+00  1.07154E+03  6.315E-01  1.000E+01  5.000E-02  1.211E+00
   1    6    8     4     3    9.7275E+00  1.2689E-01   9.6006E+00  0.000E+00  0.000E+00  0.000E+00  1.06381E+03  6.256E-01  1.000E+01  3.500E-02  1.209E+00
   1    6    8     5     1    1.0432E+01  2.2686E-01   1.0205E+01  0.000E+00  0.000E+00  0.000E+00  1.05868E+03  6.790E-01  1.542E+01  6.166E-02  1.226E+00
   1    7    7     5     2    1.0205E+01  2.7894E-01   9.9265E+00  0.000E+00  0.000E+00  0.000E+00  1.05417E+03  6.732E-01  1.519E+01  7.594E-02  1.224E+00
   1    8    7     5     3    9.9265E+00  1.9221E-01   9.7343E+00  0.000E+00  0.000E+00  0.000E+00  1.04992E+03  6.676E-01  1.497E+01  5.241E-02  1.223E+00
   1    8    6     5     4    9.7343E+00  1.3577E-01   9.5985E+00  0.000E+00  0.000E+00  0.000E+00  1.04691E+03  6.637E-01  1.482E+01  3.706E-02  1.221E+00
   1    9    6     6     1    6.1938E+01  3.0608E-01   6.1632E+01  0.000E+00  0.000E+00  0.000E+00  1.04483E+03  2.101E+00  1.200E+01  6.000E-02  1.700E+00
   1   10    7     6     2    6.1632E+01  3.0571E-01   6.1326E+01  0.000E+00  0.000E+00  0.000E+00  1.04028E+03  2.095E+00  1.200E+01  6.000E-02  1.698E+00
   1   11    7     6     3    6.1326E+01  3.0533E-01   6.1021E+01  0.000E+00  0.000E+00  0.000E+00  1.03573E+03  2.089E+00  1.200E+01  6.000E-02  1.696E+00
   1   12    7     6     4    6.1021E+01  3.0496E-01   6.0716E+01  0.000E+00  0.000E+00  0.000E+00  1.03117E+03  2.083E+00  1.200E+01  6.000E-02  1.694E+00
   1   13    7     6     5    6.0716E+01  2.2364E-02   6.0694E+01  0.000E+00  0.000E+00  0.000E+00  1.02799E+03  2.079E+00  1.200E+01  2.400E-02  3.106E-01
   1   14    9     7     1    1.5000E+02  1.3476E+00   1.4865E+02  0.000E+00  0.000E+00  0.000E+00  1.03987E+03  2.288E+00  5.529E+01  5.593E-01  8.031E-01
   1   13    8     7     2    1.4865E+02  1.8553E+00   1.4680E+02  0.000E+00  0.000E+00  0.000E+00  1.03478E+03  2.279E+00  5.526E+01  6.148E-01  1.006E+00
   1   13    7     7     3    1.4680E+02  1.4705E+00   1.4533E+02  0.000E+00  0.000E+00  0.000E+00  1.02969E+03  2.270E+00  5.522E+01  5.584E-01  8.777E-01
   1   13    6     8     1    2.0602E+02  1.0624E+00   2.0496E+02  0.000E+00  0.000E+00  0.000E+00  1.02504E+03  3.170E+00  4.596E+01  4.684E-01  7.561E-01
   1   13    5     8     2    2.0496E+02  2.4766E-01   2.0471E+02  0.000E+00  0.000E+00  0.000E+00  1.01879E+03  3.166E+00  4.591E+01  4.678E-01  1.765E-01
   1   13    4     8     3    2.0471E+02 -2.3105E+00   2.0702E+02  0.000E+00  0.000E+00  0.000E+00  1.01255E+03  3.172E+00  4.599E+01  4.687E+00 -1.643E-01
   1   13    3     8     4    2.0702E+02 -3.5507E+00   2.1057E+02  0.000E+00  0.000E+00  0.000E+00  1.00631E+03  3.189E+00  4.624E+01  4.712E+00 -2.512E-01
   1   13    2     8     5    2.1057E+02 -2.4695E+00   2.1304E+02  0.000E+00  0.000E+00  0.000E+00  1.00008E+03  3.206E+00  4.649E+01  4.737E+00 -1.738E-01
   1   13    1     8     6    2.1304E+02 -1.8816E+00   2.1492E+02  0.000E+00  0.000E+00  0.000E+00  9.95093E+02  3.218E+00  4.666E+01  2.853E+00 -2.198E-01
   1    8    6     9     1    0.0000E+00  0.0000E+00   0.0000E+00  0.000E+00  0.000E+00  0.000E+00  1.07875E+03  0.000E+00  4.000E+00  0.000E+00  1.000E+00
   1    8    5     9     2    0.0000E+00  0.0000E+00   0.0000E+00  0.000E+00  0.000E+00  0.000E+00  1.07825E+03  0.000E+00  4.000E+00  0.000E+00  1.000E+00





UNSATURATED ZONE PACKAGE VOLUMETRIC BUDGET FOR  TIME STEP    30 STRESS PERIOD   28
  ------------------------------------------------------------------------------



     CUMULATIVE VOLUMES      L**3       RATES FOR THIS TIME STEP      L**3/T
     ------------------                 ------------------------

           IN:                                      IN:
           ---                                      ---
        INFILTRATION =  2832167455.3588          INFILTRATION =           0.8475

          OUT:                                     OUT:
          ----                                     ----
              UZF ET =   870480214.3978                UZF ET =           0.7500
        UZF RECHARGE =  1618782467.4790          UZF RECHARGE =           1.3969

            IN - OUT =   342904773.4820              IN - OUT =          -1.2994

          STORAGE:                                 STORAGE:
          --------                                 --------
      STORAGE CHANGE =   342901398.6818        STORAGE CHANGE =          -1.2994

 PERCENT DISCREPANCY IS DIFFERENCE BETWEEN IN-OUT MINUS CHANGE IN STORAGE
 DIVIDED BY THE AVERAGE OF IN AND OUT TIMES 100

 PERCENT DISCREPANCY =           0.00     PERCENT DISCREPANCY =           0.00






1
  VOLUMETRIC BUDGET FOR AGRICULTURAL FIELDS AT  END OF TIME STEP   30, STRESS PERIOD  28
  ------------------------------------------------------------------------------

     CUMULATIVE VOLUMES      L**3       RATES FOR THIS TIME STEP      L**3/T
     ------------------                 ------------------------

           IN:                                      IN:
           ---                                      ---
           AG WELLS      =  1742828032.0000             AG WELLS      =           0.0000
      DIVERSION SEGMENTS =  1029065024.0000        DIVERSION SEGMENTS =           0.0000
           GW IRRIGATION =           0.0000             GW IRRIGATION =           0.0000
           SW IRRIGATION =           0.0000             SW IRRIGATION =           0.0000
        SYSTEM LOSSES GW =           0.0000          SYSTEM LOSSES GW =           0.0000
        SYSTEM LOSSES SW =           0.0000          SYSTEM LOSSES SW =           0.0000

                TOTAL IN =  2771892992.0000                  TOTAL IN =           0.0000

          OUT:                                     OUT:
          ----                                     ----
           AG WELLS      =           0.0000             AG WELLS      =           0.0000
      DIVERSION SEGMENTS =           0.0000        DIVERSION SEGMENTS =           0.0000
           GW IRRIGATION =  1742828032.0000             GW IRRIGATION =           0.0000
           SW IRRIGATION =  1029085184.0000             SW IRRIGATION =           0.0000
        SYSTEM LOSSES GW =           0.0000          SYSTEM LOSSES GW =           0.0000
        SYSTEM LOSSES SW =           0.0000          SYSTEM LOSSES SW =           0.0000

               TOTAL OUT =  2771913216.0000                 TOTAL OUT =           0.0000

                IN - OUT =      -20224.0000                  IN - OUT =           0.0000

     PERCENT DISCREPANCY =          -0.00         PERCENT DISCREPANCY =           0.00



1
  VOLUMETRIC BUDGET FOR ENTIRE MODEL AT END OF TIME STEP   30, STRESS PERIOD  28
  ------------------------------------------------------------------------------

     CUMULATIVE VOLUMES      L**3       RATES FOR THIS TIME STEP      L**3/T
     ------------------                 ------------------------

           IN:                                      IN:
           ---                                      ---
             STORAGE     =  1770154368.0000               STORAGE     =           0.1980
       CONSTANT HEAD     =           0.0000         CONSTANT HEAD     =           0.0000
     HEAD DEP BOUNDS     =    20336794.0000       HEAD DEP BOUNDS     =           0.2866
      STREAM LEAKAGE     =   848567616.0000        STREAM LEAKAGE     =          13.0381
        UZF RECHARGE     =  1618782080.0000          UZF RECHARGE     =           1.3969
               GW ET     =           0.0000                 GW ET     =           0.0000
     SURFACE LEAKAGE     =           0.0000       SURFACE LEAKAGE     =           0.0000
           AG WELLS      =           0.0000             AG WELLS      =           0.0000

                TOTAL IN =  4257840640.0000                  TOTAL IN =          14.9196

          OUT:                                     OUT:
          ----                                     ----
             STORAGE     =  1733525888.0000               STORAGE     =           4.4109
       CONSTANT HEAD     =           0.0000         CONSTANT HEAD     =           0.0000
     HEAD DEP BOUNDS     =    20583958.0000       HEAD DEP BOUNDS     =           0.2946
      STREAM LEAKAGE     =   760835008.0000        STREAM LEAKAGE     =          10.2123
        UZF RECHARGE     =           0.0000          UZF RECHARGE     =           0.0000
               GW ET     =      108650.8359                 GW ET     =       1.6088E-03
     SURFACE LEAKAGE     =           0.0000       SURFACE LEAKAGE     =           0.0000
           AG WELLS      =  1742828032.0000             AG WELLS      =           0.0000

               TOTAL OUT =  4257881344.0000                 TOTAL OUT =          14.9195

                IN - OUT =      -40704.0000                  IN - OUT =       1.6403E-04

     PERCENT DISCREPANCY =          -0.00         PERCENT DISCREPANCY =           0.00






         TIME SUMMARY AT END OF TIME STEP   30 IN STRESS PERIOD   28
                    SECONDS     MINUTES      HOURS       DAYS        YEARS
                    -----------------------------------------------------------
   TIME STEP LENGTH  87667.      1461.1      24.352      1.0147     2.77799E-03
 STRESS PERIOD TIME 2.63000E+06  43833.      730.56      30.440     8.33397E-02
         TOTAL TIME 7.10967E+07 1.18494E+06  19749.      822.88      2.2529    
1
1
                            STRESS PERIOD NO.   29, LENGTH =   2630000.    
                            -----------------------------------------------

                              NUMBER OF TIME STEPS =    30

                               MULTIPLIER FOR DELT =     1.000

                            INITIAL TIME STEP SIZE =   87666.66    

 REUSING NON-PARAMETER GHB CELLS FROM LAST STRESS PERIOD

      2 GHB CELLS

 REUSING STREAM SEGMENT DATA FROM LAST STRESS PERIOD



            AREAL INFILTRATION RATE
 READING ON UNIT   19 WITH FORMAT: (FREE)              

            1           2           3           4           5           6           7           8           9          10
 ........................................................................................................................
   1   1.0000E-10  2.0000E-10   0.000       0.000       0.000       0.000       0.000       0.000       0.000       0.000    
   2   2.0000E-10  1.0000E-10  2.0000E-10   0.000       0.000      8.0000E-10  8.0000E-10  5.0000E-10   0.000       0.000    
   3    0.000      5.0000E-10  1.0000E-10  1.0000E-10  8.0000E-10  8.0000E-10  5.0000E-10  5.0000E-10   0.000       0.000    
   4   8.0000E-10  5.0000E-10  1.0000E-10  1.0000E-10  1.0000E-10  1.0000E-10  1.0000E-10  1.0000E-10  2.0000E-10   0.000    
   5   8.0000E-10  5.0000E-10  1.0000E-10  1.0000E-10  1.0000E-10  1.0000E-10  1.0000E-10  1.0000E-10  1.0000E-10  1.0000E-10
   6   8.0000E-10  5.0000E-10  5.0000E-10  2.0000E-10  2.0000E-10  1.0000E-10  1.0000E-10  1.0000E-10  1.0000E-10  5.0000E-10
   7   8.0000E-10  5.0000E-10  5.0000E-10  2.0000E-10  2.0000E-10  1.0000E-10  1.0000E-10  2.0000E-10  2.0000E-10   0.000    
   8    0.000      5.0000E-10  5.0000E-10  2.0000E-10  2.0000E-10  1.0000E-10  1.0000E-10  2.0000E-10  5.0000E-10   0.000    
   9    0.000      5.0000E-10  5.0000E-10  2.0000E-10  2.0000E-10  1.0000E-10  1.0000E-10  2.0000E-10  5.0000E-10   0.000    
  10    0.000      5.0000E-10  5.0000E-10  2.0000E-10  2.0000E-10  1.0000E-10  1.0000E-10  2.0000E-10  5.0000E-10  8.0000E-10
  11    0.000      1.0000E-10  1.0000E-10  1.0000E-10  1.0000E-10  1.0000E-10  1.0000E-10  2.0000E-10  5.0000E-10   0.000    
  12   1.0000E-10  1.0000E-10  1.0000E-10  1.0000E-10  1.0000E-10  1.0000E-10  1.0000E-10  1.0000E-10  2.0000E-10   0.000    
  13   1.0000E-10  1.0000E-10  2.0000E-10  2.0000E-10  2.0000E-10  2.0000E-10  2.0000E-10  1.0000E-10  1.0000E-10   0.000    
  14    0.000      2.0000E-10  5.0000E-10  5.0000E-10  5.0000E-10  5.0000E-10  5.0000E-10  2.0000E-10  1.0000E-10   0.000    
  15    0.000       0.000      8.0000E-10  8.0000E-10  8.0000E-10  8.0000E-10   0.000       0.000       0.000       0.000    

                  ET RATE =  2.500000E-08

 USING ET EXTINCTION DEPTH FROM PREVIOUS STRESS PERIOD. CURRENT PERIOD IS:      29

 USING EXTINCTION WATER CONTENT FROM PREVIOUS STRESS PERIOD. CURRENT PERIOD IS:      29

 USING AIR ENTRY PRESSURE FROM PREVIOUS STRESS PERIOD. CURRENT PERIOD IS:      29

 USING ROOT PRESSURE HEAD FROM PREVIOUS STRESS PERIOD. CURRENT PERIOD IS:      29

 USING ROOT ACTIVITY FROM PREVIOUS STRESS PERIOD. CURRENT PERIOD IS:      29

 PROCESSING AG STRESS PERIOD DATA

 READING AG STRESS PERIOD DATA

 READING IRRIGATION SEGMENT

 READING IRRIGATION WELL

 READING SUPPLEMENTAL WELL

 END PROCESSING AG STRESS PERIOD DATA OPTIONS
 
 SOLVING FOR HEAD 
                                                   Max.-Head-Change                         Max.-Flux-Residual
  Residual-Control   Outer-Iter.   Inner-Iter.     Column Row Layer    Maximum-Head-Change  Column Row Layer    Maximum-Flux-Residual          L2-NORM 
          0                 1           2             2    2     1       0.3749991492E-02       2    2    1         0.1955018360E+00      0.5850658846E+00
          0                 2           2             2    2     1      -0.3647724592E-03       2    2    1        -0.1955021982E-01      0.5959224127E-01
          0                 3           1             2    2     1       0.2483964704E-04       2    2    1         0.1368515638E-02      0.4833065887E-02

    ------------------------------------------------
       NWT REQUIRED            3 OUTER ITERATIONS 
       AND A TOTAL OF          5 INNER ITERATIONS.
    ------------------------------------------------

 NO OUTPUT CONTROL FOR STRESS PERIOD   29   TIME STEP    1
 
 SOLVING FOR HEAD 
                                                   Max.-Head-Change                         Max.-Flux-Residual
  Residual-Control   Outer-Iter.   Inner-Iter.     Column Row Layer    Maximum-Head-Change  Column Row Layer    Maximum-Flux-Residual          L2-NORM 
          0                 1           2             4   13     1      -0.1089305861E-01       4   13    1        -0.6389816392E+00      0.1128217448E+01
          0                 2           2             4   13     1       0.1050754573E-02       4   13    1         0.6337411052E-01      0.1108182321E+00
          0                 3           1             4   13     1      -0.7071620765E-04       4   13    1        -0.4385251688E-02      0.7903355713E-02

    ------------------------------------------------
       NWT REQUIRED            3 OUTER ITERATIONS 
       AND A TOTAL OF          5 INNER ITERATIONS.
    ------------------------------------------------

 NO OUTPUT CONTROL FOR STRESS PERIOD   29   TIME STEP    2
 
 SOLVING FOR HEAD 
                                                   Max.-Head-Change                         Max.-Flux-Residual
  Residual-Control   Outer-Iter.   Inner-Iter.     Column Row Layer    Maximum-Head-Change  Column Row Layer    Maximum-Flux-Residual          L2-NORM 
          0                 1           2             4   13     1      -0.1196815316E-01       4   13    1        -0.7008591235E+00      0.1246320171E+01
          0                 2           2             4   13     1       0.1154472184E-02       4   13    1         0.6951121431E-01      0.1222172109E+00
          0                 3           1             4   13     1      -0.7770861699E-04       4   13    1        -0.4810608676E-02      0.8629191819E-02

    ------------------------------------------------
       NWT REQUIRED            3 OUTER ITERATIONS 
       AND A TOTAL OF          5 INNER ITERATIONS.
    ------------------------------------------------

 NO OUTPUT CONTROL FOR STRESS PERIOD   29   TIME STEP    3
 
 SOLVING FOR HEAD 
                                                   Max.-Head-Change                         Max.-Flux-Residual
  Residual-Control   Outer-Iter.   Inner-Iter.     Column Row Layer    Maximum-Head-Change  Column Row Layer    Maximum-Flux-Residual          L2-NORM 
          0                 1           2             4   13     1      -0.1062452954E-01       4   13    1        -0.6219583170E+00      0.1140341062E+01
          0                 2           2             4   13     1       0.1024808869E-02       4   13    1         0.6168249093E-01      0.1119241551E+00
          0                 3           1             4   13     1      -0.6895459678E-04       4   13    1        -0.4267168830E-02      0.7957716042E-02

    ------------------------------------------------
       NWT REQUIRED            3 OUTER ITERATIONS 
       AND A TOTAL OF          5 INNER ITERATIONS.
    ------------------------------------------------

 NO OUTPUT CONTROL FOR STRESS PERIOD   29   TIME STEP    4
 
 SOLVING FOR HEAD 
                                                   Max.-Head-Change                         Max.-Flux-Residual
  Residual-Control   Outer-Iter.   Inner-Iter.     Column Row Layer    Maximum-Head-Change  Column Row Layer    Maximum-Flux-Residual          L2-NORM 
          0                 1           2             2   13     1      -0.9748732102E-02       4   13    1        -0.5521416882E+00      0.1045892636E+01
          0                 2           2             2   13     1       0.9105582616E-03       4   13    1         0.5475388297E-01      0.1027590813E+00
          0                 3           1             4   13     1      -0.6122665591E-04       4   13    1        -0.3787530699E-02      0.7366765384E-02

    ------------------------------------------------
       NWT REQUIRED            3 OUTER ITERATIONS 
       AND A TOTAL OF          5 INNER ITERATIONS.
    ------------------------------------------------

 NO OUTPUT CONTROL FOR STRESS PERIOD   29   TIME STEP    5
 
 SOLVING FOR HEAD 
                                                   Max.-Head-Change                         Max.-Flux-Residual
  Residual-Control   Outer-Iter.   Inner-Iter.     Column Row Layer    Maximum-Head-Change  Column Row Layer    Maximum-Flux-Residual          L2-NORM 
          0                 1           2             2   13     1      -0.9024019544E-02       2   13    1        -0.5077712964E+00      0.9617348392E+00
          0                 2           2             2   13     1       0.8436394248E-03       2   13    1         0.4879738028E-01      0.9020091232E-01
          0                 3           1             2   13     1      -0.5449029818E-04       2   13    1        -0.3239502557E-02      0.6565075407E-02

    ------------------------------------------------
       NWT REQUIRED            3 OUTER ITERATIONS 
       AND A TOTAL OF          5 INNER ITERATIONS.
    ------------------------------------------------

 NO OUTPUT CONTROL FOR STRESS PERIOD   29   TIME STEP    6
 
 SOLVING FOR HEAD 
                                                   Max.-Head-Change                         Max.-Flux-Residual
  Residual-Control   Outer-Iter.   Inner-Iter.     Column Row Layer    Maximum-Head-Change  Column Row Layer    Maximum-Flux-Residual          L2-NORM 
          0                 1           2             2   13     1      -0.8352294184E-02       2   13    1        -0.4699956410E+00      0.8905183074E+00
          0                 2           2             2   13     1       0.7810968387E-03       2   13    1         0.4518149658E-01      0.8771355071E-01
          0                 3           1             2   13     1      -0.5028782462E-04       4   13    1        -0.3038498578E-02      0.6403917656E-02

    ------------------------------------------------
       NWT REQUIRED            3 OUTER ITERATIONS 
       AND A TOTAL OF          5 INNER ITERATIONS.
    ------------------------------------------------

 NO OUTPUT CONTROL FOR STRESS PERIOD   29   TIME STEP    7
 
 SOLVING FOR HEAD 
                                                   Max.-Head-Change                         Max.-Flux-Residual
  Residual-Control   Outer-Iter.   Inner-Iter.     Column Row Layer    Maximum-Head-Change  Column Row Layer    Maximum-Flux-Residual          L2-NORM 
          0                 1           2             2   13     1      -0.7729884417E-02       2   13    1        -0.4349878708E+00      0.8269822826E+00
          0                 2           2             2   13     1       0.7233262950E-03       2   13    1         0.4184159440E-01      0.8158675165E-01
          0                 3           1             2   13     1      -0.4661984852E-04       2   13    1        -0.2771852621E-02      0.6018928970E-02

    ------------------------------------------------
       NWT REQUIRED            3 OUTER ITERATIONS 
       AND A TOTAL OF          5 INNER ITERATIONS.
    ------------------------------------------------

 NO OUTPUT CONTROL FOR STRESS PERIOD   29   TIME STEP    8
 
 SOLVING FOR HEAD 
                                                   Max.-Head-Change                         Max.-Flux-Residual
  Residual-Control   Outer-Iter.   Inner-Iter.     Column Row Layer    Maximum-Head-Change  Column Row Layer    Maximum-Flux-Residual          L2-NORM 
          0                 1           2             2   13     1      -0.7153275130E-02       2   13    1        -0.4025509709E+00      0.7698791236E+00
          0                 2           2             2   13     1       0.6697672048E-03       2   13    1         0.3874461962E-01      0.7609272034E-01
          0                 3           1             2   13     1      -0.4321206440E-04       2   13    1        -0.2569329214E-02      0.5678192485E-02

    ------------------------------------------------
       NWT REQUIRED            3 OUTER ITERATIONS 
       AND A TOTAL OF          5 INNER ITERATIONS.
    ------------------------------------------------

 NO OUTPUT CONTROL FOR STRESS PERIOD   29   TIME STEP    9
 
 SOLVING FOR HEAD 
                                                   Max.-Head-Change                         Max.-Flux-Residual
  Residual-Control   Outer-Iter.   Inner-Iter.     Column Row Layer    Maximum-Head-Change  Column Row Layer    Maximum-Flux-Residual          L2-NORM 
          0                 1           2             2   13     1      -0.6619251063E-02       2   13    1        -0.3725052516E+00      0.7185959640E+00
          0                 2           2             2   13     1       0.6199078401E-03       2   13    1         0.3587253748E-01      0.7033028327E-01
          0                 3           1             2   13     1      -0.4005357652E-04       2   13    1        -0.2382399301E-02      0.5324346571E-02

    ------------------------------------------------
       NWT REQUIRED            3 OUTER ITERATIONS 
       AND A TOTAL OF          5 INNER ITERATIONS.
    ------------------------------------------------

 NO OUTPUT CONTROL FOR STRESS PERIOD   29   TIME STEP   10
 
 SOLVING FOR HEAD 
                                                   Max.-Head-Change                         Max.-Flux-Residual
  Residual-Control   Outer-Iter.   Inner-Iter.     Column Row Layer    Maximum-Head-Change  Column Row Layer    Maximum-Flux-Residual          L2-NORM 
          0                 1           2             2   13     1      -0.6125970992E-02       2   13    1        -0.3446922494E+00      0.6731189313E+00
          0                 2           2             2   13     1       0.5740085546E-03       2   13    1         0.3320072938E-01      0.6680084705E-01
          0                 3           1             2   13     1      -0.3705225850E-04       2   13    1        -0.2202777438E-02      0.5107839158E-02

    ------------------------------------------------
       NWT REQUIRED            3 OUTER ITERATIONS 
       AND A TOTAL OF          5 INNER ITERATIONS.
    ------------------------------------------------

 NO OUTPUT CONTROL FOR STRESS PERIOD   29   TIME STEP   11
 
 SOLVING FOR HEAD 
                                                   Max.-Head-Change                         Max.-Flux-Residual
  Residual-Control   Outer-Iter.   Inner-Iter.     Column Row Layer    Maximum-Head-Change  Column Row Layer    Maximum-Flux-Residual          L2-NORM 
          0                 1           2             2   13     1      -0.5669867618E-02       2   13    1        -0.3189886439E+00      0.6339183254E+00
          0                 2           2             2   13     1       0.5314018453E-03       2   13    1         0.3073240634E-01      0.6305290969E-01
          0                 3           1             2   13     1      -0.3432477572E-04       2   13    1        -0.2040361636E-02      0.4883767971E-02

    ------------------------------------------------
       NWT REQUIRED            3 OUTER ITERATIONS 
       AND A TOTAL OF          5 INNER ITERATIONS.
    ------------------------------------------------

 NO OUTPUT CONTROL FOR STRESS PERIOD   29   TIME STEP   12
 
 SOLVING FOR HEAD 
                                                   Max.-Head-Change                         Max.-Flux-Residual
  Residual-Control   Outer-Iter.   Inner-Iter.     Column Row Layer    Maximum-Head-Change  Column Row Layer    Maximum-Flux-Residual          L2-NORM 
          0                 1           2             2   13     1      -0.5248268096E-02       2   13    1        -0.2952319754E+00      0.5985373089E+00
          0                 2           2             2   13     1       0.4920231770E-03       2   13    1         0.2845134203E-01      0.5967919107E-01
          0                 3           1             2   13     1      -0.3174958083E-04       2   13    1        -0.1886992065E-02      0.4683451910E-02

    ------------------------------------------------
       NWT REQUIRED            3 OUTER ITERATIONS 
       AND A TOTAL OF          5 INNER ITERATIONS.
    ------------------------------------------------

 NO OUTPUT CONTROL FOR STRESS PERIOD   29   TIME STEP   13
 
 SOLVING FOR HEAD 
                                                   Max.-Head-Change                         Max.-Flux-Residual
  Residual-Control   Outer-Iter.   Inner-Iter.     Column Row Layer    Maximum-Head-Change  Column Row Layer    Maximum-Flux-Residual          L2-NORM 
          0                 1           2             2   13     1      -0.4858481943E-02       2   13    1        -0.2732702701E+00      0.5666246473E+00
          0                 2           2             2   13     1       0.4554978651E-03       2   13    1         0.2633572944E-01      0.5664103202E-01
          0                 3           1             2   13     1      -0.2935107662E-04       2   13    1        -0.1744156618E-02      0.4505067616E-02

    ------------------------------------------------
       NWT REQUIRED            3 OUTER ITERATIONS 
       AND A TOTAL OF          5 INNER ITERATIONS.
    ------------------------------------------------

 NO OUTPUT CONTROL FOR STRESS PERIOD   29   TIME STEP   14
 
 SOLVING FOR HEAD 
                                                   Max.-Head-Change                         Max.-Flux-Residual
  Residual-Control   Outer-Iter.   Inner-Iter.     Column Row Layer    Maximum-Head-Change  Column Row Layer    Maximum-Flux-Residual          L2-NORM 
          0                 1           2             2   13     1      -0.4498179868E-02       2   13    1        -0.2529719596E+00      0.5378694308E+00
          0                 2           2             2   13     1       0.4219142538E-03       2   13    1         0.2439083572E-01      0.5391536926E-01
          0                 3           1             2   13     1      -0.2729351434E-04       2   13    1        -0.1621733966E-02      0.4350906074E-02

    ------------------------------------------------
       NWT REQUIRED            3 OUTER ITERATIONS 
       AND A TOTAL OF          5 INNER ITERATIONS.
    ------------------------------------------------

 NO OUTPUT CONTROL FOR STRESS PERIOD   29   TIME STEP   15
 
 SOLVING FOR HEAD 
                                                   Max.-Head-Change                         Max.-Flux-Residual
  Residual-Control   Outer-Iter.   Inner-Iter.     Column Row Layer    Maximum-Head-Change  Column Row Layer    Maximum-Flux-Residual          L2-NORM 
          0                 1           2             2   13     1      -0.4165015543E-02       2   13    1        -0.2342043736E+00      0.5119953283E+00
          0                 2           2             2   13     1       0.3907723448E-03       2   13    1         0.2258747427E-01      0.5146863564E-01
          0                 3           1             2   13     1      -0.2529501529E-04       2   13    1        -0.1502780292E-02      0.4213077512E-02

    ------------------------------------------------
       NWT REQUIRED            3 OUTER ITERATIONS 
       AND A TOTAL OF          5 INNER ITERATIONS.
    ------------------------------------------------

 NO OUTPUT CONTROL FOR STRESS PERIOD   29   TIME STEP   16
 
 SOLVING FOR HEAD 
                                                   Max.-Head-Change                         Max.-Flux-Residual
  Residual-Control   Outer-Iter.   Inner-Iter.     Column Row Layer    Maximum-Head-Change  Column Row Layer    Maximum-Flux-Residual          L2-NORM 
          0                 1           2             2   13     1      -0.3856956904E-02       2   13    1        -0.2168528875E+00      0.4887252014E+00
          0                 2           2             2   13     1       0.3619741412E-03       2   13    1         0.2092002915E-01      0.4927338823E-01
          0                 3           1             2   13     1      -0.2343197761E-04       2   13    1        -0.1391903156E-02      0.4089816880E-02

    ------------------------------------------------
       NWT REQUIRED            3 OUTER ITERATIONS 
       AND A TOTAL OF          5 INNER ITERATIONS.
    ------------------------------------------------

 NO OUTPUT CONTROL FOR STRESS PERIOD   29   TIME STEP   17
 
 SOLVING FOR HEAD 
                                                   Max.-Head-Change                         Max.-Flux-Residual
  Residual-Control   Outer-Iter.   Inner-Iter.     Column Row Layer    Maximum-Head-Change  Column Row Layer    Maximum-Flux-Residual          L2-NORM 
          0                 1           2             2   13     1      -0.3572112794E-02       2   13    1        -0.2008106603E+00      0.4678165982E+00
          0                 2           2             2   13     1       0.3353014595E-03       2   13    1         0.1937579684E-01      0.4730601395E-01
          0                 3           1             2   13     1      -0.2169720182E-04       2   13    1        -0.1288659739E-02      0.3981566465E-02

    ------------------------------------------------
       NWT REQUIRED            3 OUTER ITERATIONS 
       AND A TOTAL OF          5 INNER ITERATIONS.
    ------------------------------------------------

 NO OUTPUT CONTROL FOR STRESS PERIOD   29   TIME STEP   18
 
 SOLVING FOR HEAD 
                                                   Max.-Head-Change                         Max.-Flux-Residual
  Residual-Control   Outer-Iter.   Inner-Iter.     Column Row Layer    Maximum-Head-Change  Column Row Layer    Maximum-Flux-Residual          L2-NORM 
          0                 1           2             2   13     1      -0.3308638734E-02       2   13    1        -0.1859735170E+00      0.4490515326E+00
          0                 2           2             2   13     1       0.3106399304E-03       2   13    1         0.1794815922E-01      0.4554625048E-01
          0                 3           1             5    6     1       0.2037936195E-04       2   13    1        -0.1193460670E-02      0.3886379785E-02

    ------------------------------------------------
       NWT REQUIRED            3 OUTER ITERATIONS 
       AND A TOTAL OF          5 INNER ITERATIONS.
    ------------------------------------------------

 NO OUTPUT CONTROL FOR STRESS PERIOD   29   TIME STEP   19
 
 SOLVING FOR HEAD 
                                                   Max.-Head-Change                         Max.-Flux-Residual
  Residual-Control   Outer-Iter.   Inner-Iter.     Column Row Layer    Maximum-Head-Change  Column Row Layer    Maximum-Flux-Residual          L2-NORM 
          0                 1           2             2   13     1      -0.3065037850E-02       2   13    1        -0.1722570126E+00      0.4322228674E+00
          0                 2           2             2   13     1       0.2878426597E-03       2   13    1         0.1662860338E-01      0.4397247444E-01
          0                 3           1             4    6     1       0.2031251077E-04       2   13    1        -0.1106454671E-02      0.3802499480E-02

    ------------------------------------------------
       NWT REQUIRED            3 OUTER ITERATIONS 
       AND A TOTAL OF          5 INNER ITERATIONS.
    ------------------------------------------------

 NO OUTPUT CONTROL FOR STRESS PERIOD   29   TIME STEP   20
 
 SOLVING FOR HEAD 
                                                   Max.-Head-Change                         Max.-Flux-Residual
  Residual-Control   Outer-Iter.   Inner-Iter.     Column Row Layer    Maximum-Head-Change  Column Row Layer    Maximum-Flux-Residual          L2-NORM 
          0                 1           2             2   13     1      -0.2839593792E-02       2   13    1        -0.1595641583E+00      0.4171391789E+00
          0                 2           2             2   13     1       0.2667092520E-03       2   13    1         0.1540546496E-01      0.4256591662E-01
          0                 3           1             4    6     1       0.2038687554E-04       4    6    1         0.1076545894E-02      0.3730182734E-02

    ------------------------------------------------
       NWT REQUIRED            3 OUTER ITERATIONS 
       AND A TOTAL OF          5 INNER ITERATIONS.
    ------------------------------------------------

 NO OUTPUT CONTROL FOR STRESS PERIOD   29   TIME STEP   21
 
 SOLVING FOR HEAD 
                                                   Max.-Head-Change                         Max.-Flux-Residual
  Residual-Control   Outer-Iter.   Inner-Iter.     Column Row Layer    Maximum-Head-Change  Column Row Layer    Maximum-Flux-Residual          L2-NORM 
          0                 1           2             1   13     1      -0.2655681959E-02       2   13    1        -0.1478326816E+00      0.4036306441E+00
          0                 2           2             1   13     1       0.2513204896E-03       2   13    1         0.1427841331E-01      0.4131189072E-01
          0                 3           1             4    6     1       0.2045702268E-04       4    6    1         0.1080361336E-02      0.3665360382E-02

    ------------------------------------------------
       NWT REQUIRED            3 OUTER ITERATIONS 
       AND A TOTAL OF          5 INNER ITERATIONS.
    ------------------------------------------------

 NO OUTPUT CONTROL FOR STRESS PERIOD   29   TIME STEP   22
 
 SOLVING FOR HEAD 
                                                   Max.-Head-Change                         Max.-Flux-Residual
  Residual-Control   Outer-Iter.   Inner-Iter.     Column Row Layer    Maximum-Head-Change  Column Row Layer    Maximum-Flux-Residual          L2-NORM 
          0                 1           2             1   13     1      -0.2538144432E-02       1   13    1        -0.1380985711E+00      0.3915360938E+00
          0                 2           2             1   13     1       0.2403968982E-03       1   13    1         0.1344719162E-01      0.4019065010E-01
          0                 3           1             4    6     1       0.2051176698E-04       4    6    1         0.1083331244E-02      0.3609003902E-02

    ------------------------------------------------
       NWT REQUIRED            3 OUTER ITERATIONS 
       AND A TOTAL OF          5 INNER ITERATIONS.
    ------------------------------------------------

 NO OUTPUT CONTROL FOR STRESS PERIOD   29   TIME STEP   23
 
 SOLVING FOR HEAD 
                                                   Max.-Head-Change                         Max.-Flux-Residual
  Residual-Control   Outer-Iter.   Inner-Iter.     Column Row Layer    Maximum-Head-Change  Column Row Layer    Maximum-Flux-Residual          L2-NORM 
          0                 1           2             1   13     1      -0.2425212771E-02       1   13    1        -0.1319786708E+00      0.3807120250E+00
          0                 2           2             1   13     1       0.2298960413E-03       1   13    1         0.1286222990E-01      0.3919030016E-01
          0                 3           1             4    6     1       0.2057408290E-04       4    6    1         0.1086711017E-02      0.3559282208E-02

    ------------------------------------------------
       NWT REQUIRED            3 OUTER ITERATIONS 
       AND A TOTAL OF          5 INNER ITERATIONS.
    ------------------------------------------------

 NO OUTPUT CONTROL FOR STRESS PERIOD   29   TIME STEP   24
 
 SOLVING FOR HEAD 
                                                   Max.-Head-Change                         Max.-Flux-Residual
  Residual-Control   Outer-Iter.   Inner-Iter.     Column Row Layer    Maximum-Head-Change  Column Row Layer    Maximum-Flux-Residual          L2-NORM 
          0                 1           2             1   13     1      -0.2316724210E-02       1   13    1        -0.1260973720E+00      0.3710294654E+00
          0                 2           2             1   13     1       0.2197871352E-03       1   13    1         0.1229888055E-01      0.3829851202E-01
          0                 3           1             4    6     1       0.2063270093E-04       4    6    1         0.1089883104E-02      0.3516049319E-02

    ------------------------------------------------
       NWT REQUIRED            3 OUTER ITERATIONS 
       AND A TOTAL OF          5 INNER ITERATIONS.
    ------------------------------------------------

 NO OUTPUT CONTROL FOR STRESS PERIOD   29   TIME STEP   25
 
 SOLVING FOR HEAD 
                                                   Max.-Head-Change                         Max.-Flux-Residual
  Residual-Control   Outer-Iter.   Inner-Iter.     Column Row Layer    Maximum-Head-Change  Column Row Layer    Maximum-Flux-Residual          L2-NORM 
          0                 1           2             1   13     1      -0.2212517787E-02       1   13    1        -0.1204461663E+00      0.3623594046E+00
          0                 2           2             1   13     1       0.2100625611E-03       1   13    1         0.1175675047E-01      0.3750235118E-01
          0                 3           1             4    6     1       0.2068794245E-04       4    6    1         0.1092866704E-02      0.3478310090E-02

    ------------------------------------------------
       NWT REQUIRED            3 OUTER ITERATIONS 
       AND A TOTAL OF          5 INNER ITERATIONS.
    ------------------------------------------------

 NO OUTPUT CONTROL FOR STRESS PERIOD   29   TIME STEP   26
 
 SOLVING FOR HEAD 
                                                   Max.-Head-Change                         Max.-Flux-Residual
  Residual-Control   Outer-Iter.   Inner-Iter.     Column Row Layer    Maximum-Head-Change  Column Row Layer    Maximum-Flux-Residual          L2-NORM 
          0                 1           2             1   13     1      -0.2112526859E-02       1   13    1        -0.1150217536E+00      0.3546005850E+00
          0                 2           2             1   13     1       0.2007076315E-03       1   13    1         0.1123503516E-01      0.3679138395E-01
          0                 3           1             4    6     1       0.2073926274E-04       4    6    1         0.1095643089E-02      0.3445174815E-02

    ------------------------------------------------
       NWT REQUIRED            3 OUTER ITERATIONS 
       AND A TOTAL OF          5 INNER ITERATIONS.
    ------------------------------------------------

 NO OUTPUT CONTROL FOR STRESS PERIOD   29   TIME STEP   27
 
 SOLVING FOR HEAD 
                                                   Max.-Head-Change                         Max.-Flux-Residual
  Residual-Control   Outer-Iter.   Inner-Iter.     Column Row Layer    Maximum-Head-Change  Column Row Layer    Maximum-Flux-Residual          L2-NORM 
          0                 1           2             1   13     1      -0.2016613237E-02       1   13    1        -0.1098168819E+00      0.3476608128E+00
          0                 2           2             1   13     1       0.1917357004E-03       1   13    1         0.1073452317E-01      0.3615888974E-01
          0                 3           1             4    6     1       0.2078824949E-04       4    6    1         0.1098277035E-02      0.3416641769E-02

    ------------------------------------------------
       NWT REQUIRED            3 OUTER ITERATIONS 
       AND A TOTAL OF          5 INNER ITERATIONS.
    ------------------------------------------------

 NO OUTPUT CONTROL FOR STRESS PERIOD   29   TIME STEP   28
 
 SOLVING FOR HEAD 
                                                   Max.-Head-Change                         Max.-Flux-Residual
  Residual-Control   Outer-Iter.   Inner-Iter.     Column Row Layer    Maximum-Head-Change  Column Row Layer    Maximum-Flux-Residual          L2-NORM 
          0                 1           2             1   13     1      -0.1924633711E-02       1   13    1        -0.1048239752E+00      0.3414396976E+00
          0                 2           2             1   13     1       0.1831033308E-03       1   13    1         0.1025280737E-01      0.3559073607E-01
          0                 3           1             4    6     1       0.2082370373E-04       4    6    1         0.1100169099E-02      0.3390728844E-02

    ------------------------------------------------
       NWT REQUIRED            3 OUTER ITERATIONS 
       AND A TOTAL OF          5 INNER ITERATIONS.
    ------------------------------------------------

 NO OUTPUT CONTROL FOR STRESS PERIOD   29   TIME STEP   29
 
 SOLVING FOR HEAD 
                                                   Max.-Head-Change                         Max.-Flux-Residual
  Residual-Control   Outer-Iter.   Inner-Iter.     Column Row Layer    Maximum-Head-Change  Column Row Layer    Maximum-Flux-Residual          L2-NORM 
          0                 1           2             4   13     1       0.5221030241E-02       4   13    1         0.3003188265E+00      0.6189878073E+00
          0                 2           2             4   13     1      -0.5028569234E-03       4   13    1        -0.2974024277E-01      0.6183920630E-01
          0                 3           1             4   13     1       0.3375932836E-04       4   13    1         0.2052855061E-02      0.4837839057E-02

    ------------------------------------------------
       NWT REQUIRED            3 OUTER ITERATIONS 
       AND A TOTAL OF          5 INNER ITERATIONS.
    ------------------------------------------------

 NO OUTPUT CONTROL FOR STRESS PERIOD   29   TIME STEP   30



 STREAM LISTING     PERIOD     29   STEP       30

 LAYER ROW COL. STREAM  RCH.  FLOW INTO     FLOW TO   FLOW OUT OF   OVRLND.     DIRECT     STREAM       STREAM     STREAM     STREAM   STREAMBED  STREAMBED
                SEG.NO.  NO.  STRM. RCH.    AQUIFER    STRM. RCH.    RUNOFF     PRECIP       ET          HEAD       DEPTH      WIDTH   CONDCTNC.   GRADIENT

   1    1    1     1     1    3.7161E+01  2.9408E-01   3.6867E+01  0.000E+00  0.000E+00  0.000E+00  1.09436E+03  1.310E+00  1.516E+01  6.824E-02  1.437E+00
   1    2    2     1     2    3.6867E+01  4.5538E-01   3.6412E+01  0.000E+00  0.000E+00  0.000E+00  1.08937E+03  1.307E+00  1.511E+01  1.057E-01  1.436E+00
   1    3    3     1     3    3.6412E+01  3.8831E-01   3.6024E+01  0.000E+00  0.000E+00  0.000E+00  1.08372E+03  1.303E+00  1.504E+01  9.023E-02  1.434E+00
   1    3    4     1     4    3.6024E+01  3.5753E-01   3.5666E+01  0.000E+00  0.000E+00  0.000E+00  1.07871E+03  1.300E+00  1.498E+01  8.314E-02  1.433E+00
   1    4    5     2     1    3.3666E+01  3.4626E-01   3.3320E+01  0.000E+00  0.000E+00  0.000E+00  1.07337E+03  1.439E+00  1.200E+01  7.800E-02  1.480E+00
   1    5    6     2     2    3.3320E+01  2.6588E-01   3.3054E+01  0.000E+00  0.000E+00  0.000E+00  1.06794E+03  1.431E+00  1.200E+01  6.000E-02  1.477E+00
   1    6    6     2     3    3.3054E+01  2.6546E-01   3.2789E+01  0.000E+00  0.000E+00  0.000E+00  1.06322E+03  1.424E+00  1.200E+01  6.000E-02  1.475E+00
   1    7    6     2     4    3.2789E+01  2.6505E-01   3.2524E+01  0.000E+00  0.000E+00  0.000E+00  1.05849E+03  1.417E+00  1.200E+01  6.000E-02  1.472E+00
   1    8    6     2     5    3.2524E+01  2.6464E-01   3.2259E+01  0.000E+00  0.000E+00  0.000E+00  1.05377E+03  1.411E+00  1.200E+01  6.000E-02  1.470E+00
   1    3    5     3     1    2.0000E+00  2.8252E-01   1.7175E+00  0.000E+00  0.000E+00  0.000E+00  1.07555E+03  1.909E+00  9.636E+00  7.227E-02  1.955E+00
   1    3    6     3     2    1.7175E+00  2.4905E-01   1.4684E+00  0.000E+00  0.000E+00  0.000E+00  1.07264E+03  1.727E+00  8.909E+00  6.682E-02  1.864E+00
   1    3    7     3     3    1.4684E+00  1.9718E-01   1.2712E+00  0.000E+00  0.000E+00  0.000E+00  1.06987E+03  1.555E+00  8.218E+00  5.547E-02  1.777E+00
   1    4    8     3     4    1.2712E+00  2.2567E-01   1.0456E+00  0.000E+00  0.000E+00  0.000E+00  1.06682E+03  1.364E+00  7.455E+00  6.709E-02  1.682E+00
   1    5    8     3     5    1.0456E+00  1.5790E-01   8.8768E-01  0.000E+00  0.000E+00  0.000E+00  1.06362E+03  1.164E+00  6.655E+00  4.991E-02  1.582E+00
   1    6    8     3     6    8.8768E-01  5.5980E-02   8.3170E-01  0.000E+00  0.000E+00  0.000E+00  1.06158E+03  1.036E+00  6.145E+00  1.844E-02  1.518E+00
   1    5   10     4     1    1.0000E+01  9.0919E-02   9.9091E+00  0.000E+00  0.000E+00  0.000E+00  1.07836E+03  6.368E-01  1.000E+01  2.500E-02  1.212E+00
   1    5    9     4     2    9.9091E+00  1.8158E-01   9.7275E+00  0.000E+00  0.000E+00  0.000E+00  1.07154E+03  6.315E-01  1.000E+01  5.000E-02  1.211E+00
   1    6    8     4     3    9.7275E+00  1.2689E-01   9.6006E+00  0.000E+00  0.000E+00  0.000E+00  1.06381E+03  6.256E-01  1.000E+01  3.500E-02  1.209E+00
   1    6    8     5     1    1.0432E+01  2.2686E-01   1.0205E+01  0.000E+00  0.000E+00  0.000E+00  1.05868E+03  6.790E-01  1.542E+01  6.166E-02  1.226E+00
   1    7    7     5     2    1.0205E+01  2.7894E-01   9.9265E+00  0.000E+00  0.000E+00  0.000E+00  1.05417E+03  6.732E-01  1.519E+01  7.594E-02  1.224E+00
   1    8    7     5     3    9.9265E+00  1.9221E-01   9.7343E+00  0.000E+00  0.000E+00  0.000E+00  1.04992E+03  6.676E-01  1.497E+01  5.241E-02  1.223E+00
   1    8    6     5     4    9.7343E+00  1.3577E-01   9.5985E+00  0.000E+00  0.000E+00  0.000E+00  1.04691E+03  6.637E-01  1.482E+01  3.706E-02  1.221E+00
   1    9    6     6     1    4.1857E+01  2.7961E-01   4.1578E+01  0.000E+00  0.000E+00  0.000E+00  1.04439E+03  1.660E+00  1.200E+01  6.000E-02  1.553E+00
   1   10    7     6     2    4.1578E+01  2.7921E-01   4.1299E+01  0.000E+00  0.000E+00  0.000E+00  1.03984E+03  1.654E+00  1.200E+01  6.000E-02  1.551E+00
   1   11    7     6     3    4.1299E+01  2.7881E-01   4.1020E+01  0.000E+00  0.000E+00  0.000E+00  1.03528E+03  1.647E+00  1.200E+01  6.000E-02  1.549E+00
   1   12    7     6     4    4.1020E+01  2.7841E-01   4.0741E+01  0.000E+00  0.000E+00  0.000E+00  1.03073E+03  1.640E+00  1.200E+01  6.000E-02  1.547E+00
   1   13    7     6     5    4.0741E+01  1.1546E-02   4.0730E+01  0.000E+00  0.000E+00  0.000E+00  1.02755E+03  1.637E+00  1.200E+01  2.400E-02  1.604E-01
   1   14    9     7     1    1.5000E+02  1.3477E+00   1.4865E+02  0.000E+00  0.000E+00  0.000E+00  1.03987E+03  2.288E+00  5.529E+01  5.593E-01  8.032E-01
   1   13    8     7     2    1.4865E+02  1.8520E+00   1.4680E+02  0.000E+00  0.000E+00  0.000E+00  1.03478E+03  2.279E+00  5.526E+01  6.148E-01  1.004E+00
   1   13    7     7     3    1.4680E+02  1.4659E+00   1.4533E+02  0.000E+00  0.000E+00  0.000E+00  1.02969E+03  2.270E+00  5.522E+01  5.584E-01  8.750E-01
   1   13    6     8     1    1.8606E+02  9.7700E-01   1.8509E+02  0.000E+00  0.000E+00  0.000E+00  1.02493E+03  3.051E+00  4.424E+01  4.508E-01  7.224E-01
   1   13    5     8     2    1.8509E+02  1.9354E-01   1.8489E+02  0.000E+00  0.000E+00  0.000E+00  1.01867E+03  3.047E+00  4.419E+01  4.503E-01  1.433E-01
   1   13    4     8     3    1.8489E+02 -2.2612E+00   1.8715E+02  0.000E+00  0.000E+00  0.000E+00  1.01243E+03  3.054E+00  4.428E+01  4.512E+00 -1.671E-01
   1   13    3     8     4    1.8715E+02 -3.4522E+00   1.9061E+02  0.000E+00  0.000E+00  0.000E+00  1.00620E+03  3.071E+00  4.453E+01  4.538E+00 -2.536E-01
   1   13    2     8     5    1.9061E+02 -2.3376E+00   1.9294E+02  0.000E+00  0.000E+00  0.000E+00  9.99964E+02  3.089E+00  4.479E+01  4.564E+00 -1.707E-01
   1   13    1     8     6    1.9294E+02 -1.8858E+00   1.9483E+02  0.000E+00  0.000E+00  0.000E+00  9.94976E+02  3.101E+00  4.497E+01  2.750E+00 -2.286E-01
   1    8    6     9     1    0.0000E+00  0.0000E+00   0.0000E+00  0.000E+00  0.000E+00  0.000E+00  1.07875E+03  0.000E+00  4.000E+00  0.000E+00  1.000E+00
   1    8    5     9     2    0.0000E+00  0.0000E+00   0.0000E+00  0.000E+00  0.000E+00  0.000E+00  1.07825E+03  0.000E+00  4.000E+00  0.000E+00  1.000E+00





UNSATURATED ZONE PACKAGE VOLUMETRIC BUDGET FOR  TIME STEP    30 STRESS PERIOD   29
  ------------------------------------------------------------------------------



     CUMULATIVE VOLUMES      L**3       RATES FOR THIS TIME STEP      L**3/T
     ------------------                 ------------------------

           IN:                                      IN:
           ---                                      ---
        INFILTRATION =  2834396380.2316          INFILTRATION =           0.8475

          OUT:                                     OUT:
          ----                                     ----
              UZF ET =   873929812.7154                UZF ET =           0.8475
        UZF RECHARGE =  1622452901.2290          UZF RECHARGE =           1.3960

            IN - OUT =   338013666.2872              IN - OUT =          -1.3960

          STORAGE:                                 STORAGE:
          --------                                 --------
      STORAGE CHANGE =   338010291.4847        STORAGE CHANGE =          -1.3960

 PERCENT DISCREPANCY IS DIFFERENCE BETWEEN IN-OUT MINUS CHANGE IN STORAGE
 DIVIDED BY THE AVERAGE OF IN AND OUT TIMES 100

 PERCENT DISCREPANCY =           0.00     PERCENT DISCREPANCY =           0.00






1
  VOLUMETRIC BUDGET FOR AGRICULTURAL FIELDS AT  END OF TIME STEP   30, STRESS PERIOD  29
  ------------------------------------------------------------------------------

     CUMULATIVE VOLUMES      L**3       RATES FOR THIS TIME STEP      L**3/T
     ------------------                 ------------------------

           IN:                                      IN:
           ---                                      ---
           AG WELLS      =  1742828032.0000             AG WELLS      =           0.0000
      DIVERSION SEGMENTS =  1029065024.0000        DIVERSION SEGMENTS =           0.0000
           GW IRRIGATION =           0.0000             GW IRRIGATION =           0.0000
           SW IRRIGATION =           0.0000             SW IRRIGATION =           0.0000
        SYSTEM LOSSES GW =           0.0000          SYSTEM LOSSES GW =           0.0000
        SYSTEM LOSSES SW =           0.0000          SYSTEM LOSSES SW =           0.0000

                TOTAL IN =  2771892992.0000                  TOTAL IN =           0.0000

          OUT:                                     OUT:
          ----                                     ----
           AG WELLS      =           0.0000             AG WELLS      =           0.0000
      DIVERSION SEGMENTS =           0.0000        DIVERSION SEGMENTS =           0.0000
           GW IRRIGATION =  1742828032.0000             GW IRRIGATION =           0.0000
           SW IRRIGATION =  1029085184.0000             SW IRRIGATION =           0.0000
        SYSTEM LOSSES GW =           0.0000          SYSTEM LOSSES GW =           0.0000
        SYSTEM LOSSES SW =           0.0000          SYSTEM LOSSES SW =           0.0000

               TOTAL OUT =  2771913216.0000                 TOTAL OUT =           0.0000

                IN - OUT =      -20224.0000                  IN - OUT =           0.0000

     PERCENT DISCREPANCY =          -0.00         PERCENT DISCREPANCY =           0.00



1
  VOLUMETRIC BUDGET FOR ENTIRE MODEL AT END OF TIME STEP   30, STRESS PERIOD  29
  ------------------------------------------------------------------------------

     CUMULATIVE VOLUMES      L**3       RATES FOR THIS TIME STEP      L**3/T
     ------------------                 ------------------------

           IN:                                      IN:
           ---                                      ---
             STORAGE     =  1773145088.0000               STORAGE     =           0.1732
       CONSTANT HEAD     =           0.0000         CONSTANT HEAD     =           0.0000
     HEAD DEP BOUNDS     =    21090454.0000       HEAD DEP BOUNDS     =           0.2866
      STREAM LEAKAGE     =   879130560.0000        STREAM LEAKAGE     =          12.2679
        UZF RECHARGE     =  1622452352.0000          UZF RECHARGE     =           1.3960
               GW ET     =           0.0000                 GW ET     =           0.0000
     SURFACE LEAKAGE     =           0.0000       SURFACE LEAKAGE     =           0.0000
           AG WELLS      =           0.0000             AG WELLS      =           0.0000

                TOTAL IN =  4295818240.0000                  TOTAL IN =          14.1236

          OUT:                                     OUT:
          ----                                     ----
             STORAGE     =  1740476032.0000               STORAGE     =           3.8953
       CONSTANT HEAD     =           0.0000         CONSTANT HEAD     =           0.0000
     HEAD DEP BOUNDS     =    21353300.0000       HEAD DEP BOUNDS     =           0.2912
      STREAM LEAKAGE     =   791048192.0000        STREAM LEAKAGE     =           9.9369
        UZF RECHARGE     =           0.0000          UZF RECHARGE     =           0.0000
               GW ET     =      151061.6094                 GW ET     =           0.0000
     SURFACE LEAKAGE     =           0.0000       SURFACE LEAKAGE     =           0.0000
           AG WELLS      =  1742828032.0000             AG WELLS      =           0.0000

               TOTAL OUT =  4295856640.0000                 TOTAL OUT =          14.1233

                IN - OUT =      -38400.0000                  IN - OUT =       2.8706E-04

     PERCENT DISCREPANCY =          -0.00         PERCENT DISCREPANCY =           0.00






         TIME SUMMARY AT END OF TIME STEP   30 IN STRESS PERIOD   29
                    SECONDS     MINUTES      HOURS       DAYS        YEARS
                    -----------------------------------------------------------
   TIME STEP LENGTH  87667.      1461.1      24.352      1.0147     2.77799E-03
 STRESS PERIOD TIME 2.63000E+06  43833.      730.56      30.440     8.33397E-02
         TOTAL TIME 7.37266E+07 1.22878E+06  20480.      853.32      2.3363    
1
1
                            STRESS PERIOD NO.   30, LENGTH =   2630000.    
                            -----------------------------------------------

                              NUMBER OF TIME STEPS =    30

                               MULTIPLIER FOR DELT =     1.000

                            INITIAL TIME STEP SIZE =   87666.66    

 REUSING NON-PARAMETER GHB CELLS FROM LAST STRESS PERIOD

      2 GHB CELLS

 REUSING STREAM SEGMENT DATA FROM LAST STRESS PERIOD



            AREAL INFILTRATION RATE
 READING ON UNIT   19 WITH FORMAT: (FREE)              

            1           2           3           4           5           6           7           8           9          10
 ........................................................................................................................
   1   1.0000E-10  2.0000E-10   0.000       0.000       0.000       0.000       0.000       0.000       0.000       0.000    
   2   2.0000E-10  1.0000E-10  2.0000E-10   0.000       0.000      8.0000E-10  8.0000E-10  5.0000E-10   0.000       0.000    
   3    0.000      5.0000E-10  1.0000E-10  1.0000E-10  8.0000E-10  8.0000E-10  5.0000E-10  5.0000E-10   0.000       0.000    
   4   8.0000E-10  5.0000E-10  1.0000E-10  1.0000E-10  1.0000E-10  1.0000E-10  1.0000E-10  1.0000E-10  2.0000E-10   0.000    
   5   8.0000E-10  5.0000E-10  1.0000E-10  1.0000E-10  1.0000E-10  1.0000E-10  1.0000E-10  1.0000E-10  1.0000E-10  1.0000E-10
   6   8.0000E-10  5.0000E-10  5.0000E-10  2.0000E-10  2.0000E-10  1.0000E-10  1.0000E-10  1.0000E-10  1.0000E-10  5.0000E-10
   7   8.0000E-10  5.0000E-10  5.0000E-10  2.0000E-10  2.0000E-10  1.0000E-10  1.0000E-10  2.0000E-10  2.0000E-10   0.000    
   8    0.000      5.0000E-10  5.0000E-10  2.0000E-10  2.0000E-10  1.0000E-10  1.0000E-10  2.0000E-10  5.0000E-10   0.000    
   9    0.000      5.0000E-10  5.0000E-10  2.0000E-10  2.0000E-10  1.0000E-10  1.0000E-10  2.0000E-10  5.0000E-10   0.000    
  10    0.000      5.0000E-10  5.0000E-10  2.0000E-10  2.0000E-10  1.0000E-10  1.0000E-10  2.0000E-10  5.0000E-10  8.0000E-10
  11    0.000      1.0000E-10  1.0000E-10  1.0000E-10  1.0000E-10  1.0000E-10  1.0000E-10  2.0000E-10  5.0000E-10   0.000    
  12   1.0000E-10  1.0000E-10  1.0000E-10  1.0000E-10  1.0000E-10  1.0000E-10  1.0000E-10  1.0000E-10  2.0000E-10   0.000    
  13   1.0000E-10  1.0000E-10  2.0000E-10  2.0000E-10  2.0000E-10  2.0000E-10  2.0000E-10  1.0000E-10  1.0000E-10   0.000    
  14    0.000      2.0000E-10  5.0000E-10  5.0000E-10  5.0000E-10  5.0000E-10  5.0000E-10  2.0000E-10  1.0000E-10   0.000    
  15    0.000       0.000      8.0000E-10  8.0000E-10  8.0000E-10  8.0000E-10   0.000       0.000       0.000       0.000    

                  ET RATE =  5.000000E-08

 USING ET EXTINCTION DEPTH FROM PREVIOUS STRESS PERIOD. CURRENT PERIOD IS:      30

 USING EXTINCTION WATER CONTENT FROM PREVIOUS STRESS PERIOD. CURRENT PERIOD IS:      30

 USING AIR ENTRY PRESSURE FROM PREVIOUS STRESS PERIOD. CURRENT PERIOD IS:      30

 USING ROOT PRESSURE HEAD FROM PREVIOUS STRESS PERIOD. CURRENT PERIOD IS:      30

 USING ROOT ACTIVITY FROM PREVIOUS STRESS PERIOD. CURRENT PERIOD IS:      30

 PROCESSING AG STRESS PERIOD DATA

 READING AG STRESS PERIOD DATA

 READING IRRIGATION SEGMENT

 READING IRRIGATION WELL

 READING SUPPLEMENTAL WELL

 END PROCESSING AG STRESS PERIOD DATA OPTIONS
 
 SOLVING FOR HEAD 
                                                   Max.-Head-Change                         Max.-Flux-Residual
  Residual-Control   Outer-Iter.   Inner-Iter.     Column Row Layer    Maximum-Head-Change  Column Row Layer    Maximum-Flux-Residual          L2-NORM 
          0                 1           2             4   13     1       0.1617159810E-01       4   13    1         0.9326704236E+00      0.1721452314E+01
          0                 2           2             4    7     1      -0.1861807062E+01       4    7    1        -0.9999550149E+02      0.2449495066E+03
          0                 3           2             4    7     1       0.1217503799E+00       5    8    1         0.6782148916E+01      0.1652002242E+02
          0                 4           2             4    7     1      -0.4844647310E-02       5    8    1        -0.2773946517E+00      0.6757044456E+00
          0                 5           1             4    7     1       0.5973646238E-04       5    8    1         0.3515438313E-02      0.8567943629E-02

    ------------------------------------------------
       NWT REQUIRED            5 OUTER ITERATIONS 
       AND A TOTAL OF          9 INNER ITERATIONS.
    ------------------------------------------------

 NO OUTPUT CONTROL FOR STRESS PERIOD   30   TIME STEP    1
 
 SOLVING FOR HEAD 
                                                   Max.-Head-Change                         Max.-Flux-Residual
  Residual-Control   Outer-Iter.   Inner-Iter.     Column Row Layer    Maximum-Head-Change  Column Row Layer    Maximum-Flux-Residual          L2-NORM 
          0                 1           2             5    8     1       0.4923634992E-01       5    8    1         0.2720248494E+01      0.6186422426E+01
          0                 2           2             4    7     1      -0.3525240063E+00       5    8    1        -0.1916031781E+02      0.4676848743E+02
          0                 3           2             4    7     1       0.2307592278E+00       5    8    1         0.1274930534E+02      0.3121235596E+02
          0                 4           2             4    7     1      -0.3422150113E+00       5    8    1        -0.1940958655E+02      0.4754305317E+02
          0                 5           2             4    7     1       0.4218955460E-02       4    7    1         0.2459092250E+00      0.6024731782E+00
          0                 6           1             4    7     1       0.6204904529E-04       5    8    1         0.3623743102E-02      0.8885734199E-02

    ------------------------------------------------
       NWT REQUIRED            6 OUTER ITERATIONS 
       AND A TOTAL OF         11 INNER ITERATIONS.
    ------------------------------------------------

 NO OUTPUT CONTROL FOR STRESS PERIOD   30   TIME STEP    2
 
 SOLVING FOR HEAD 
                                                   Max.-Head-Change                         Max.-Flux-Residual
  Residual-Control   Outer-Iter.   Inner-Iter.     Column Row Layer    Maximum-Head-Change  Column Row Layer    Maximum-Flux-Residual          L2-NORM 
          0                 1           2             5    8     1       0.6063376655E-01       5    8    1         0.3346969036E+01      0.7503621513E+01
          0                 2           2             4    7     1      -0.3528662249E+00       5    8    1        -0.1922298833E+02      0.4687615124E+02
          0                 3           2             4    7     1       0.2307837620E+00       5    8    1         0.1275371800E+02      0.3121984885E+02
          0                 4           2             4    7     1      -0.3422179489E+00       5    8    1        -0.1940976943E+02      0.4754336253E+02
          0                 5           2             4    7     1       0.4218991689E-02       4    7    1         0.2459098572E+00      0.6024757826E+00
          0                 6           1             4    7     1       0.6204957815E-04       5    8    1         0.3623777124E-02      0.8885756196E-02

    ------------------------------------------------
       NWT REQUIRED            6 OUTER ITERATIONS 
       AND A TOTAL OF         11 INNER ITERATIONS.
    ------------------------------------------------

 NO OUTPUT CONTROL FOR STRESS PERIOD   30   TIME STEP    3
 
 SOLVING FOR HEAD 
                                                   Max.-Head-Change                         Max.-Flux-Residual
  Residual-Control   Outer-Iter.   Inner-Iter.     Column Row Layer    Maximum-Head-Change  Column Row Layer    Maximum-Flux-Residual          L2-NORM 
          0                 1           2             5    8     1       0.7141452778E-01       5    8    1         0.3939245755E+01      0.8775646733E+01
          0                 2           2             4    7     1      -0.3532216946E+00       5    8    1        -0.1928221428E+02      0.4698025871E+02
          0                 3           2             4    7     1       0.2308092708E+00       5    8    1         0.1275788779E+02      0.3122708786E+02
          0                 4           2             4    7     1      -0.3422210434E+00       5    8    1        -0.1940994220E+02      0.4754366137E+02
          0                 5           2             4    7     1       0.4219029845E-02       4    7    1         0.2459105179E+00      0.6024787089E+00
          0                 6           1             4    7     1       0.6205013935E-04       5    8    1         0.3623809207E-02      0.8885792046E-02

    ------------------------------------------------
       NWT REQUIRED            6 OUTER ITERATIONS 
       AND A TOTAL OF         11 INNER ITERATIONS.
    ------------------------------------------------

 NO OUTPUT CONTROL FOR STRESS PERIOD   30   TIME STEP    4
 
 SOLVING FOR HEAD 
                                                   Max.-Head-Change                         Max.-Flux-Residual
  Residual-Control   Outer-Iter.   Inner-Iter.     Column Row Layer    Maximum-Head-Change  Column Row Layer    Maximum-Flux-Residual          L2-NORM 
          0                 1           2             5    8     1       0.8162126857E-01       5    8    1         0.4499482741E+01      0.9998811921E+01
          0                 2           2             4    7     1      -0.3535889638E+00       5    8    1        -0.1933823611E+02      0.4708094869E+02
          0                 3           2             4    7     1       0.2308356495E+00       5    8    1         0.1276183169E+02      0.3123408504E+02
          0                 4           2             4    7     1      -0.3422242812E+00       5    8    1        -0.1941010559E+02      0.4754395009E+02
          0                 5           2             4    7     1       0.4219069762E-02       4    7    1         0.2459112039E+00      0.6024815779E+00
          0                 6           1             4    7     1       0.6205072642E-04       5    8    1         0.3623839525E-02      0.8885827986E-02

    ------------------------------------------------
       NWT REQUIRED            6 OUTER ITERATIONS 
       AND A TOTAL OF         11 INNER ITERATIONS.
    ------------------------------------------------

 NO OUTPUT CONTROL FOR STRESS PERIOD   30   TIME STEP    5
 
 SOLVING FOR HEAD 
                                                   Max.-Head-Change                         Max.-Flux-Residual
  Residual-Control   Outer-Iter.   Inner-Iter.     Column Row Layer    Maximum-Head-Change  Column Row Layer    Maximum-Flux-Residual          L2-NORM 
          0                 1           2             5    8     1       0.9129308530E-01       5    8    1         0.5029882779E+01      0.1117296309E+02
          0                 2           2             4    7     1      -0.3539666633E+00       5    8    1        -0.1939127413E+02      0.4717836508E+02
          0                 3           2             4    7     1       0.2308627992E+00       5    8    1         0.1276556521E+02      0.3124085135E+02
          0                 4           2             4    7     1      -0.3422276489E+00       5    8    1        -0.1941026023E+02      0.4754422918E+02
          0                 5           2             4    7     1       0.4219111276E-02       4    7    1         0.2459119044E+00      0.6024843368E+00
          0                 6           1             4    7     1       0.6205133691E-04       5    8    1         0.3623868184E-02      0.8885861446E-02

    ------------------------------------------------
       NWT REQUIRED            6 OUTER ITERATIONS 
       AND A TOTAL OF         11 INNER ITERATIONS.
    ------------------------------------------------

 NO OUTPUT CONTROL FOR STRESS PERIOD   30   TIME STEP    6
 
 SOLVING FOR HEAD 
                                                   Max.-Head-Change                         Max.-Flux-Residual
  Residual-Control   Outer-Iter.   Inner-Iter.     Column Row Layer    Maximum-Head-Change  Column Row Layer    Maximum-Flux-Residual          L2-NORM 
          0                 1           2             5    8     1       0.1004661160E+00       5    8    1         0.5532480953E+01      0.1229940066E+02
          0                 2           2             4    7     1      -0.3543535068E+00       5    8    1        -0.1944153187E+02      0.4727264621E+02
          0                 3           2             4    7     1       0.2308906269E+00       5    8    1         0.1276910273E+02      0.3124739506E+02
          0                 4           2             4    7     1      -0.3422311340E+00       5    8    1        -0.1941040672E+02      0.4754449892E+02
          0                 5           2             4    7     1       0.4219154232E-02       4    7    1         0.2459126257E+00      0.6024870611E+00
          0                 6           1             4    7     1       0.6205196857E-04       5    8    1         0.3623895267E-02      0.8885898458E-02

    ------------------------------------------------
       NWT REQUIRED            6 OUTER ITERATIONS 
       AND A TOTAL OF         11 INNER ITERATIONS.
    ------------------------------------------------

 NO OUTPUT CONTROL FOR STRESS PERIOD   30   TIME STEP    7
 
 SOLVING FOR HEAD 
                                                   Max.-Head-Change                         Max.-Flux-Residual
  Residual-Control   Outer-Iter.   Inner-Iter.     Column Row Layer    Maximum-Head-Change  Column Row Layer    Maximum-Flux-Residual          L2-NORM 
          0                 1           2             5    8     1       0.1091737910E+00       5    8    1         0.6009158938E+01      0.1337999762E+02
          0                 2           2             4    7     1      -0.3547484044E+00       5    8    1        -0.1948919753E+02      0.4736391784E+02
          0                 3           2             4    7     1       0.2309190687E+00       5    8    1         0.1277245751E+02      0.3125371689E+02
          0                 4           2             4    7     1      -0.3422347510E+00       5    8    1        -0.1941054562E+02      0.4754475916E+02
          0                 5           2             4    7     1       0.4219198784E-02       4    7    1         0.2459133190E+00      0.6024897348E+00
          0                 6           1             4    7     1       0.6205262398E-04       5    8    1         0.3623920920E-02      0.8885941787E-02

    ------------------------------------------------
       NWT REQUIRED            6 OUTER ITERATIONS 
       AND A TOTAL OF         11 INNER ITERATIONS.
    ------------------------------------------------

 NO OUTPUT CONTROL FOR STRESS PERIOD   30   TIME STEP    8
 
 SOLVING FOR HEAD 
                                                   Max.-Head-Change                         Max.-Flux-Residual
  Residual-Control   Outer-Iter.   Inner-Iter.     Column Row Layer    Maximum-Head-Change  Column Row Layer    Maximum-Flux-Residual          L2-NORM 
          0                 1           2             5    8     1       0.1174467852E+00       5    8    1         0.6461642310E+01      0.1441702950E+02
          0                 2           2             5    7     1      -0.3552780641E+00       5    8    1        -0.1953444368E+02      0.4745231858E+02
          0                 3           2             4    7     1       0.2309479927E+00       5    8    1         0.1277563755E+02      0.3125982977E+02
          0                 4           2             4    7     1      -0.3422384366E+00       5    8    1        -0.1941067711E+02      0.4754501061E+02
          0                 5           2             4    7     1       0.4219244203E-02       4    7    1         0.2459140743E+00      0.6024924130E+00
          0                 6           1             4    7     1       0.6205329181E-04       5    8    1         0.3623947447E-02      0.8885987927E-02

    ------------------------------------------------
       NWT REQUIRED            6 OUTER ITERATIONS 
       AND A TOTAL OF         11 INNER ITERATIONS.
    ------------------------------------------------

 NO OUTPUT CONTROL FOR STRESS PERIOD   30   TIME STEP    9
 
 SOLVING FOR HEAD 
                                                   Max.-Head-Change                         Max.-Flux-Residual
  Residual-Control   Outer-Iter.   Inner-Iter.     Column Row Layer    Maximum-Head-Change  Column Row Layer    Maximum-Flux-Residual          L2-NORM 
          0                 1           2             5    8     1       0.1253138246E+00       5    8    1         0.6891545185E+01      0.1541266788E+02
          0                 2           2             5    7     1      -0.3558843975E+00       5    8    1        -0.1957743175E+02      0.4753795513E+02
          0                 3           2             4    7     1       0.2309773549E+00       5    8    1         0.1277864994E+02      0.3126574394E+02
          0                 4           2             4    7     1      -0.3422422071E+00       5    8    1        -0.1941080140E+02      0.4754525370E+02
          0                 5           2             4    7     1       0.4219290665E-02       4    7    1         0.2459148422E+00      0.6024950039E+00
          0                 6           1             4    7     1       0.6205397500E-04       5    8    1         0.3623973573E-02      0.8886026873E-02

    ------------------------------------------------
       NWT REQUIRED            6 OUTER ITERATIONS 
       AND A TOTAL OF         11 INNER ITERATIONS.
    ------------------------------------------------

 NO OUTPUT CONTROL FOR STRESS PERIOD   30   TIME STEP   10
 
 SOLVING FOR HEAD 
                                                   Max.-Head-Change                         Max.-Flux-Residual
  Residual-Control   Outer-Iter.   Inner-Iter.     Column Row Layer    Maximum-Head-Change  Column Row Layer    Maximum-Flux-Residual          L2-NORM 
          0                 1           2             5    8     1       0.1328011346E+00       5    8    1         0.7300341363E+01      0.1636889107E+02
          0                 2           2             5    7     1      -0.3564774097E+00       5    8    1        -0.1961830913E+02      0.4762094540E+02
          0                 3           2             4    7     1       0.2310070814E+00       5    8    1         0.1278151142E+02      0.3127147364E+02
          0                 4           2             4    7     1      -0.3422460527E+00       5    8    1        -0.1941091939E+02      0.4754548914E+02
          0                 5           2             4    7     1       0.4219338049E-02       4    7    1         0.2459156215E+00      0.6024974981E+00
          0                 6           1             4    7     1       0.6205467140E-04       5    8    1         0.3623995932E-02      0.8886059403E-02

    ------------------------------------------------
       NWT REQUIRED            6 OUTER ITERATIONS 
       AND A TOTAL OF         11 INNER ITERATIONS.
    ------------------------------------------------

 NO OUTPUT CONTROL FOR STRESS PERIOD   30   TIME STEP   11
 
 SOLVING FOR HEAD 
                                                   Max.-Head-Change                         Max.-Flux-Residual
  Residual-Control   Outer-Iter.   Inner-Iter.     Column Row Layer    Maximum-Head-Change  Column Row Layer    Maximum-Flux-Residual          L2-NORM 
          0                 1           2             5    8     1       0.1399330745E+00       5    8    1         0.7689398552E+01      0.1728777428E+02
          0                 2           2             5    7     1      -0.3570572128E+00       5    8    1        -0.1965721260E+02      0.4770139873E+02
          0                 3           2             4    7     1       0.2310371068E+00       5    8    1         0.1278423474E+02      0.3127702823E+02
          0                 4           2             4    7     1      -0.3422499643E+00       5    8    1        -0.1941103166E+02      0.4754571736E+02
          0                 5           2             4    7     1       0.4219386245E-02       4    7    1         0.2459164101E+00      0.6024999216E+00
          0                 6           1             4    7     1       0.6205538069E-04       5    8    1         0.3624017122E-02      0.8886091616E-02

    ------------------------------------------------
       NWT REQUIRED            6 OUTER ITERATIONS 
       AND A TOTAL OF         11 INNER ITERATIONS.
    ------------------------------------------------

 NO OUTPUT CONTROL FOR STRESS PERIOD   30   TIME STEP   12
 
 SOLVING FOR HEAD 
                                                   Max.-Head-Change                         Max.-Flux-Residual
  Residual-Control   Outer-Iter.   Inner-Iter.     Column Row Layer    Maximum-Head-Change  Column Row Layer    Maximum-Flux-Residual          L2-NORM 
          0                 1           2             5    8     1       0.1467323005E+00       5    8    1         0.8059987697E+01      0.1817128929E+02
          0                 2           2             5    7     1      -0.3576239675E+00       5    8    1        -0.1969426927E+02      0.4777941611E+02
          0                 3           2             4    7     1       0.2310673731E+00       5    8    1         0.1278682879E+02      0.3128241514E+02
          0                 4           2             4    7     1      -0.3422539341E+00       5    8    1        -0.1941113859E+02      0.4754593864E+02
          0                 5           2             4    7     1       0.4219435156E-02       4    7    1         0.2459172062E+00      0.6025022640E+00
          0                 6           1             4    7     1       0.6205609994E-04       5    8    1         0.3624037250E-02      0.8886121019E-02

    ------------------------------------------------
       NWT REQUIRED            6 OUTER ITERATIONS 
       AND A TOTAL OF         11 INNER ITERATIONS.
    ------------------------------------------------

 NO OUTPUT CONTROL FOR STRESS PERIOD   30   TIME STEP   13
 
 SOLVING FOR HEAD 
                                                   Max.-Head-Change                         Max.-Flux-Residual
  Residual-Control   Outer-Iter.   Inner-Iter.     Column Row Layer    Maximum-Head-Change  Column Row Layer    Maximum-Flux-Residual          L2-NORM 
          0                 1           2             5    8     1       0.1532198825E+00       5    8    1         0.8413291228E+01      0.1902142381E+02
          0                 2           2             5    7     1      -0.3581778329E+00       5    8    1        -0.1972959739E+02      0.4785510910E+02
          0                 3           2             4    7     1       0.2310978228E+00       5    8    1         0.1278930185E+02      0.3128764157E+02
          0                 4           2             4    7     1      -0.3422579536E+00       5    8    1        -0.1941124052E+02      0.4754615333E+02
          0                 5           2             4    7     1       0.4219484677E-02       4    7    1         0.2459180087E+00      0.6025045540E+00
          0                 6           1             4    7     1       0.6205682849E-04       5    8    1         0.3624056361E-02      0.8886149862E-02

    ------------------------------------------------
       NWT REQUIRED            6 OUTER ITERATIONS 
       AND A TOTAL OF         11 INNER ITERATIONS.
    ------------------------------------------------

 NO OUTPUT CONTROL FOR STRESS PERIOD   30   TIME STEP   14
 
 SOLVING FOR HEAD 
                                                   Max.-Head-Change                         Max.-Flux-Residual
  Residual-Control   Outer-Iter.   Inner-Iter.     Column Row Layer    Maximum-Head-Change  Column Row Layer    Maximum-Flux-Residual          L2-NORM 
          0                 1           2             5    8     1       0.1594150596E+00       5    8    1         0.8750386514E+01      0.1983989203E+02
          0                 2           2             5    7     1      -0.3587190210E+00       5    8    1        -0.1976330471E+02      0.4792855042E+02
          0                 3           2             4    7     1       0.2311284047E+00       5    8    1         0.1279166145E+02      0.3129271395E+02
          0                 4           2             4    7     1      -0.3422620162E+00       5    8    1        -0.1941133776E+02      0.4754636163E+02
          0                 5           2             4    7     1       0.4219534726E-02       4    7    1         0.2459188157E+00      0.6025067617E+00
          0                 6           1             4    7     1       0.6205756455E-04       5    8    1         0.3624074567E-02      0.8886178036E-02

    ------------------------------------------------
       NWT REQUIRED            6 OUTER ITERATIONS 
       AND A TOTAL OF         11 INNER ITERATIONS.
    ------------------------------------------------

 NO OUTPUT CONTROL FOR STRESS PERIOD   30   TIME STEP   15
 
 SOLVING FOR HEAD 
                                                   Max.-Head-Change                         Max.-Flux-Residual
  Residual-Control   Outer-Iter.   Inner-Iter.     Column Row Layer    Maximum-Head-Change  Column Row Layer    Maximum-Flux-Residual          L2-NORM 
          0                 1           2             5    8     1       0.1653360078E+00       5    8    1         0.9072293697E+01      0.2062852154E+02
          0                 2           2             5    6     1      -0.3592580447E+00       5    8    1        -0.1979549323E+02      0.4799986330E+02
          0                 3           2             4    7     1       0.2311590716E+00       5    8    1         0.1279391475E+02      0.3129763895E+02
          0                 4           2             4    7     1      -0.3422661144E+00       5    8    1        -0.1941143060E+02      0.4754656388E+02
          0                 5           2             4    7     1       0.4219585214E-02       4    7    1         0.2459196262E+00      0.6025089270E+00
          0                 6           1             4    7     1       0.6205830677E-04       5    8    1         0.3624091814E-02      0.8886204788E-02

    ------------------------------------------------
       NWT REQUIRED            6 OUTER ITERATIONS 
       AND A TOTAL OF         11 INNER ITERATIONS.
    ------------------------------------------------

 NO OUTPUT CONTROL FOR STRESS PERIOD   30   TIME STEP   16
 
 SOLVING FOR HEAD 
                                                   Max.-Head-Change                         Max.-Flux-Residual
  Residual-Control   Outer-Iter.   Inner-Iter.     Column Row Layer    Maximum-Head-Change  Column Row Layer    Maximum-Flux-Residual          L2-NORM 
          0                 1           2             5    8     1       0.1709993378E+00       5    8    1         0.9379941164E+01      0.2138884218E+02
          0                 2           2             5    6     1      -0.3598117522E+00       5    8    1        -0.1982625580E+02      0.4806910579E+02
          0                 3           2             4    7     1       0.2311897805E+00       5    8    1         0.1279606824E+02      0.3130242233E+02
          0                 4           2             4    7     1      -0.3422702424E+00       5    8    1        -0.1941151932E+02      0.4754676028E+02
          0                 5           2             4    7     1       0.4219636067E-02       4    7    1         0.2459204386E+00      0.6025110364E+00
          0                 6           1             4    7     1       0.6205905459E-04       5    8    1         0.3624108260E-02      0.8886230750E-02

    ------------------------------------------------
       NWT REQUIRED            6 OUTER ITERATIONS 
       AND A TOTAL OF         11 INNER ITERATIONS.
    ------------------------------------------------

 NO OUTPUT CONTROL FOR STRESS PERIOD   30   TIME STEP   17
 
 SOLVING FOR HEAD 
                                                   Max.-Head-Change                         Max.-Flux-Residual
  Residual-Control   Outer-Iter.   Inner-Iter.     Column Row Layer    Maximum-Head-Change  Column Row Layer    Maximum-Flux-Residual          L2-NORM 
          0                 1           2             5    8     1       0.1764205509E+00       5    8    1         0.9674196757E+01      0.2212213132E+02
          0                 2           2             5    6     1      -0.3603429483E+00       5    8    1        -0.1985567922E+02      0.4813636740E+02
          0                 3           2             4    7     1       0.2312204890E+00       5    8    1         0.1279812799E+02      0.3130706984E+02
          0                 4           2             4    7     1      -0.3422743942E+00       5    8    1        -0.1941160417E+02      0.4754695108E+02
          0                 5           2             4    7     1       0.4219687211E-02       4    7    1         0.2459212519E+00      0.6025130895E+00
          0                 6           1             4    7     1       0.6205980734E-04       5    8    1         0.3624123906E-02      0.8886254623E-02

    ------------------------------------------------
       NWT REQUIRED            6 OUTER ITERATIONS 
       AND A TOTAL OF         11 INNER ITERATIONS.
    ------------------------------------------------

 NO OUTPUT CONTROL FOR STRESS PERIOD   30   TIME STEP   18
 
 SOLVING FOR HEAD 
                                                   Max.-Head-Change                         Max.-Flux-Residual
  Residual-Control   Outer-Iter.   Inner-Iter.     Column Row Layer    Maximum-Head-Change  Column Row Layer    Maximum-Flux-Residual          L2-NORM 
          0                 1           2             5    8     1       0.1816140393E+00       5    8    1         0.9955864710E+01      0.2282976251E+02
          0                 2           2             5    6     1      -0.3608529109E+00       5    8    1        -0.1988384390E+02      0.4820172760E+02
          0                 3           2             4    7     1       0.2312511619E+00       5    8    1         0.1280009963E+02      0.3131158699E+02
          0                 4           2             4    7     1      -0.3422785646E+00       5    8    1        -0.1941168537E+02      0.4754713651E+02
          0                 5           2             4    7     1       0.4219738584E-02       4    7    1         0.2459220650E+00      0.6025150890E+00
          0                 6           1             4    7     1       0.6206056255E-04       5    8    1         0.3624138804E-02      0.8886278415E-02

    ------------------------------------------------
       NWT REQUIRED            6 OUTER ITERATIONS 
       AND A TOTAL OF         11 INNER ITERATIONS.
    ------------------------------------------------

 NO OUTPUT CONTROL FOR STRESS PERIOD   30   TIME STEP   19
 
 SOLVING FOR HEAD 
                                                   Max.-Head-Change                         Max.-Flux-Residual
  Residual-Control   Outer-Iter.   Inner-Iter.     Column Row Layer    Maximum-Head-Change  Column Row Layer    Maximum-Flux-Residual          L2-NORM 
          0                 1           2             5    8     1       0.1865934425E+00       5    8    1         0.1022570690E+02      0.2351304014E+02
          0                 2           2             5    6     1      -0.3613427876E+00       5    8    1        -0.1991082604E+02      0.4826526121E+02
          0                 3           2             4    7     1       0.2312817657E+00       5    8    1         0.1280198850E+02      0.3131597897E+02
          0                 4           2             4    7     1      -0.3422827487E+00       5    8    1        -0.1941176316E+02      0.4754731678E+02
          0                 5           2             4    7     1       0.4219790125E-02       4    7    1         0.2459228771E+00      0.6025170369E+00
          0                 6           1             4    7     1       0.6206132090E-04       5    8    1         0.3624152999E-02      0.8886301469E-02

    ------------------------------------------------
       NWT REQUIRED            6 OUTER ITERATIONS 
       AND A TOTAL OF         11 INNER ITERATIONS.
    ------------------------------------------------

 NO OUTPUT CONTROL FOR STRESS PERIOD   30   TIME STEP   20
 
 SOLVING FOR HEAD 
                                                   Max.-Head-Change                         Max.-Flux-Residual
  Residual-Control   Outer-Iter.   Inner-Iter.     Column Row Layer    Maximum-Head-Change  Column Row Layer    Maximum-Flux-Residual          L2-NORM 
          0                 1           2             5    8     1       0.1913712851E+00       5    8    1         0.1048442281E+02      0.2417319338E+02
          0                 2           2             5    6     1      -0.3618136932E+00       5    8    1        -0.1993669558E+02      0.4832703954E+02
          0                 3           2             4    7     1       0.2313122674E+00       5    8    1         0.1280379948E+02      0.3132025071E+02
          0                 4           2             4    7     1      -0.3422869416E+00       5    8    1        -0.1941183773E+02      0.4754749210E+02
          0                 5           2             4    7     1       0.4219841773E-02       4    7    1         0.2459236870E+00      0.6025189353E+00
          0                 6           1             4    7     1       0.6206208036E-04       5    8    1         0.3624166545E-02      0.8886322856E-02

    ------------------------------------------------
       NWT REQUIRED            6 OUTER ITERATIONS 
       AND A TOTAL OF         11 INNER ITERATIONS.
    ------------------------------------------------

 NO OUTPUT CONTROL FOR STRESS PERIOD   30   TIME STEP   21
 
 SOLVING FOR HEAD 
                                                   Max.-Head-Change                         Max.-Flux-Residual
  Residual-Control   Outer-Iter.   Inner-Iter.     Column Row Layer    Maximum-Head-Change  Column Row Layer    Maximum-Flux-Residual          L2-NORM 
          0                 1           2             5    8     1       0.1959589285E+00       5    8    1         0.1073264632E+02      0.2481135195E+02
          0                 2           2             5    6     1      -0.3622666962E+00       5    8    1        -0.1996142305E+02      0.4838712981E+02
          0                 3           2             4    7     1       0.2313426741E+00       5    8    1         0.1280553053E+02      0.3132440688E+02
          0                 4           2             4    7     1      -0.3422911465E+00       5    8    1        -0.1941188072E+02      0.4754766265E+02
          0                 5           2             4    7     1       0.4219850310E-02       4    7    1         0.2459244945E+00      0.6025208011E+00
          0                 6           1             4    7     1       0.6206220549E-04       5    8    1         0.3626799959E-02      0.8886348222E-02

    ------------------------------------------------
       NWT REQUIRED            6 OUTER ITERATIONS 
       AND A TOTAL OF         11 INNER ITERATIONS.
    ------------------------------------------------

 NO OUTPUT CONTROL FOR STRESS PERIOD   30   TIME STEP   22
 
 SOLVING FOR HEAD 
                                                   Max.-Head-Change                         Max.-Flux-Residual
  Residual-Control   Outer-Iter.   Inner-Iter.     Column Row Layer    Maximum-Head-Change  Column Row Layer    Maximum-Flux-Residual          L2-NORM 
          0                 1           2             5    8     1       0.2004050887E+00       5    8    1         0.1097116050E+02      0.2542861393E+02
          0                 2           2             5    6     1      -0.3627026359E+00       5    8    1        -0.1998537113E+02      0.4844559867E+02
          0                 3           2             4    7     1       0.2313728894E+00       5    8    1         0.1280720701E+02      0.3132845193E+02
          0                 4           2             4    7     1      -0.3422953888E+00       5    8    1        -0.1941197802E+02      0.4754782863E+02
          0                 5           2             4    7     1       0.4219945867E-02       4    7    1         0.2459252998E+00      0.6025225887E+00
          0                 6           1             4    7     1       0.6206361095E-04       5    8    1         0.3624191055E-02      0.8886363811E-02

    ------------------------------------------------
       NWT REQUIRED            6 OUTER ITERATIONS 
       AND A TOTAL OF         11 INNER ITERATIONS.
    ------------------------------------------------

 NO OUTPUT CONTROL FOR STRESS PERIOD   30   TIME STEP   23
 
 SOLVING FOR HEAD 
                                                   Max.-Head-Change                         Max.-Flux-Residual
  Residual-Control   Outer-Iter.   Inner-Iter.     Column Row Layer    Maximum-Head-Change  Column Row Layer    Maximum-Flux-Residual          L2-NORM 
          0                 1           2             5    8     1       0.2046807098E+00       5    8    1         0.1120223913E+02      0.2602619167E+02
          0                 2           2             5    6     1      -0.3631224230E+00       5    8    1        -0.2000847706E+02      0.4850250566E+02
          0                 3           2             4    7     1       0.2314029205E+00       5    8    1         0.1280882453E+02      0.3133238998E+02
          0                 4           2             4    7     1      -0.3422995832E+00       5    8    1        -0.1941204459E+02      0.4754799021E+02
          0                 5           2             4    7     1       0.4219997532E-02       4    7    1         0.2459260989E+00      0.6025243484E+00
          0                 6           1             4    7     1       0.6206437087E-04       5    8    1         0.3624202955E-02      0.8886383103E-02

    ------------------------------------------------
       NWT REQUIRED            6 OUTER ITERATIONS 
       AND A TOTAL OF         11 INNER ITERATIONS.
    ------------------------------------------------

 NO OUTPUT CONTROL FOR STRESS PERIOD   30   TIME STEP   24
 
 SOLVING FOR HEAD 
                                                   Max.-Head-Change                         Max.-Flux-Residual
  Residual-Control   Outer-Iter.   Inner-Iter.     Column Row Layer    Maximum-Head-Change  Column Row Layer    Maximum-Flux-Residual          L2-NORM 
          0                 1           2             5    8     1       0.5864133659E+00       5    8    1         0.3226484637E+02      0.4022833095E+02
          0                 2           2             5    6     1      -0.3634587517E+00       5    6    1        -0.2000900306E+02      0.4433690926E+02
          0                 3           2             4    7     1       0.2314152601E+00       5    6    1         0.1280885829E+02      0.3015033104E+02
          0                 4           2             4    7     1      -0.3422714743E+00       5    6    1        -0.1941206489E+02      0.4552579337E+02
          0                 5           2             5    8     1      -0.1266834244E+00       5    8    1        -0.7602618060E+01      0.7622489605E+01
          0                 6           2             5    8     1      -0.6718274533E-01       5    8    1        -0.4027760965E+01      0.4027768123E+01
          0                 7           2             5    8     1      -0.3562808613E-01       5    8    1        -0.2135841178E+01      0.2135847068E+01
          0                 8           2             5    8     1      -0.1889399815E-01       5    8    1        -0.1132640827E+01      0.1132644400E+01
          0                 9           2             5    8     1      -0.1001962977E-01       5    8    1        -0.6006402743E+00      0.6006421901E+00
          0                10           1             5    8     1      -0.5313440273E-02       5    8    1        -0.3185177716E+00      0.3185187889E+00
                                                   Max.-Head-Change                         Max.-Flux-Residual
  Residual-Control   Outer-Iter.   Inner-Iter.     Column Row Layer    Maximum-Head-Change  Column Row Layer    Maximum-Flux-Residual          L2-NORM 
          0                11           1             5    8     1      -0.2817709383E-02       5    8    1        -0.1689077009E+00      0.1689082405E+00
          0                12           1             5    8     1      -0.1494214095E-02       5    8    1        -0.8956980347E-01      0.8957008964E-01
          0                13           1             5    8     1      -0.7923657216E-03       5    8    1        -0.4749742793E-01      0.4749757969E-01
          0                14           1             5    8     1      -0.4201793848E-03       5    8    1        -0.2518690578E-01      0.2518698625E-01
          0                15           1             5    8     1      -0.2228127346E-03       5    8    1        -0.1335598036E-01      0.1335602304E-01
          0                16           1             5    8     1      -0.1181521097E-03       5    8    1        -0.7082277546E-02      0.7082300178E-02
          0                17           1             5    8     1      -0.6265260831E-04       5    8    1        -0.3755487515E-02      0.3755499520E-02

    ------------------------------------------------
       NWT REQUIRED           17 OUTER ITERATIONS 
       AND A TOTAL OF         26 INNER ITERATIONS.
    ------------------------------------------------

 NO OUTPUT CONTROL FOR STRESS PERIOD   30   TIME STEP   25
 
 SOLVING FOR HEAD 
                                                   Max.-Head-Change                         Max.-Flux-Residual
  Residual-Control   Outer-Iter.   Inner-Iter.     Column Row Layer    Maximum-Head-Change  Column Row Layer    Maximum-Flux-Residual          L2-NORM 
          0                 1           2             5    8     1       0.8466457582E+00       5    8    1         0.4660091711E+02      0.5272683796E+02
          0                 2           2             5    6     1      -0.3638406018E+00       5    6    1        -0.2003110889E+02      0.4449698539E+02
          0                 3           2             5    8     1       0.2433301050E+00       5    8    1         0.1304385184E+02      0.3143890100E+02
          0                 4           2             4    7     1      -0.3422607750E+00       5    6    1        -0.1941212807E+02      0.4510297114E+02
          0                 5           2             5    8     1      -0.1143526452E+00       5    8    1        -0.6496053093E+01      0.6518480453E+01
          0                 6           2             5    8     1      -0.5759576129E-01       5    8    1        -0.3268048297E+01      0.3268063035E+01
          0                 7           2             5    8     1      -0.2900890928E-01       5    8    1        -0.1645872349E+01      0.1645892255E+01
          0                 8           2             5    8     1      -0.1461062102E-01       5    8    1        -0.8289446191E+00      0.8289555743E+00
          0                 9           2             5    8     1      -0.7358717924E-02       5    8    1        -0.4174974971E+00      0.4175030558E+00
          0                10           1             5    8     1      -0.3706224635E-02       5    8    1        -0.2102707862E+00      0.2102735879E+00
                                                   Max.-Head-Change                         Max.-Flux-Residual
  Residual-Control   Outer-Iter.   Inner-Iter.     Column Row Layer    Maximum-Head-Change  Column Row Layer    Maximum-Flux-Residual          L2-NORM 
          0                11           1             5    8     1      -0.1866626267E-02       5    8    1        -0.1059010553E+00      0.1059024666E+00
          0                12           1             5    8     1      -0.9401107822E-03       5    8    1        -0.5333567269E-01      0.5333638345E-01
          0                13           1             5    8     1      -0.4734746236E-03       5    8    1        -0.2686156647E-01      0.2686192443E-01
          0                14           1             5    8     1      -0.2384571713E-03       5    8    1        -0.1352822847E-01      0.1352840874E-01
          0                15           1             5    8     1      -0.1200936573E-03       5    8    1        -0.6813127872E-02      0.6813218664E-02
          0                16           1             5    8     1      -0.6048194615E-04       5    8    1        -0.3431216806E-02      0.3431262532E-02

    ------------------------------------------------
       NWT REQUIRED           16 OUTER ITERATIONS 
       AND A TOTAL OF         25 INNER ITERATIONS.
    ------------------------------------------------

 NO OUTPUT CONTROL FOR STRESS PERIOD   30   TIME STEP   26
 
 SOLVING FOR HEAD 
                                                   Max.-Head-Change                         Max.-Flux-Residual
  Residual-Control   Outer-Iter.   Inner-Iter.     Column Row Layer    Maximum-Head-Change  Column Row Layer    Maximum-Flux-Residual          L2-NORM 
          0                 1           2             5    8     1       0.7906205782E+00       5    8    1         0.4346050099E+02      0.5039166745E+02
          0                 2           2             5    6     1      -0.3642750366E+00       5    6    1        -0.2005360564E+02      0.4450592582E+02
          0                 3           2             4    7     1       0.2315017091E+00       5    6    1         0.1281198101E+02      0.3114528413E+02
          0                 4           2             4    7     1      -0.3422687264E+00       5    6    1        -0.1941219291E+02      0.4520437738E+02
          0                 5           2             5    8     1      -0.1175665615E+00       5    8    1        -0.6679048913E+01      0.6700840837E+01
          0                 6           2             5    8     1      -0.5920827213E-01       5    8    1        -0.3359851853E+01      0.3359867044E+01
          0                 7           2             5    8     1      -0.2981793387E-01       5    8    1        -0.1691929627E+01      0.1691950246E+01
          0                 8           2             5    8     1      -0.1501651368E-01       5    8    1        -0.8520516664E+00      0.8520629975E+00
          0                 9           2             5    8     1      -0.7562352086E-02       5    8    1        -0.4290901690E+00      0.4290959172E+00
          0                10           1             5    8     1      -0.3808384379E-02       5    8    1        -0.2160866386E+00      0.2160895355E+00
                                                   Max.-Head-Change                         Max.-Flux-Residual
  Residual-Control   Outer-Iter.   Inner-Iter.     Column Row Layer    Maximum-Head-Change  Column Row Layer    Maximum-Flux-Residual          L2-NORM 
          0                11           1             5    8     1      -0.1917876817E-02       5    8    1        -0.1088187059E+00      0.1088201649E+00
          0                12           1             5    8     1      -0.9658210569E-03       5    8    1        -0.5479934181E-01      0.5480007657E-01
          0                13           1             5    8     1      -0.4863720871E-03       5    8    1        -0.2759581333E-01      0.2759618334E-01
          0                14           1             5    8     1      -0.2449269767E-03       5    8    1        -0.1389655305E-01      0.1389673938E-01
          0                15           1             5    8     1      -0.1233390512E-03       5    8    1        -0.6997888172E-02      0.6997982013E-02
          0                16           1             5    8     1      -0.6210986497E-04       5    8    1        -0.3523894635E-02      0.3523941887E-02

    ------------------------------------------------
       NWT REQUIRED           16 OUTER ITERATIONS 
       AND A TOTAL OF         25 INNER ITERATIONS.
    ------------------------------------------------

 NO OUTPUT CONTROL FOR STRESS PERIOD   30   TIME STEP   27
 
 SOLVING FOR HEAD 
                                                   Max.-Head-Change                         Max.-Flux-Residual
  Residual-Control   Outer-Iter.   Inner-Iter.     Column Row Layer    Maximum-Head-Change  Column Row Layer    Maximum-Flux-Residual          L2-NORM 
          0                 1           2             5    8     1       0.7424090952E+00       5    8    1         0.4075848538E+02      0.4853329508E+02
          0                 2           2             5    6     1      -0.3647077162E+00       5    6    1        -0.2007625614E+02      0.4456015668E+02
          0                 3           2             4    7     1       0.2315342074E+00       5    6    1         0.1281356760E+02      0.3090506549E+02
          0                 4           2             4    7     1      -0.3422765072E+00       5    6    1        -0.1941225816E+02      0.4529377528E+02
          0                 5           2             5    8     1      -0.1203297965E+00       5    8    1        -0.6836411044E+01      0.6857683561E+01
          0                 6           2             5    8     1      -0.6059438673E-01       5    8    1        -0.3438780070E+01      0.3438795667E+01
          0                 7           2             5    8     1      -0.3051323216E-01       5    8    1        -0.1731519493E+01      0.1731540732E+01
          0                 8           2             5    8     1      -0.1536527897E-01       5    8    1        -0.8719100113E+00      0.8719216686E+00
          0                 9           2             5    8     1      -0.7737290415E-02       5    8    1        -0.4390509794E+00      0.4390568921E+00
          0                10           1             5    8     1      -0.3896130123E-02       5    8    1        -0.2210828030E+00      0.2210857825E+00
                                                   Max.-Head-Change                         Max.-Flux-Residual
  Residual-Control   Outer-Iter.   Inner-Iter.     Column Row Layer    Maximum-Head-Change  Column Row Layer    Maximum-Flux-Residual          L2-NORM 
          0                11           1             5    8     1      -0.1961887322E-02       5    8    1        -0.1113246333E+00      0.1113261338E+00
          0                12           1             5    8     1      -0.9878947879E-03       5    8    1        -0.5605620970E-01      0.5605696528E-01
          0                13           1             5    8     1      -0.4974430180E-03       5    8    1        -0.2822618974E-01      0.2822657021E-01
          0                14           1             5    8     1      -0.2504793864E-03       5    8    1        -0.1421270754E-01      0.1421289915E-01
          0                15           1             5    8     1      -0.1261236827E-03       5    8    1        -0.7156446008E-02      0.7156542523E-02
          0                16           1             5    8     1      -0.6350637107E-04       5    8    1        -0.3603412548E-02      0.3603461195E-02

    ------------------------------------------------
       NWT REQUIRED           16 OUTER ITERATIONS 
       AND A TOTAL OF         25 INNER ITERATIONS.
    ------------------------------------------------

 NO OUTPUT CONTROL FOR STRESS PERIOD   30   TIME STEP   28
 
 SOLVING FOR HEAD 
                                                   Max.-Head-Change                         Max.-Flux-Residual
  Residual-Control   Outer-Iter.   Inner-Iter.     Column Row Layer    Maximum-Head-Change  Column Row Layer    Maximum-Flux-Residual          L2-NORM 
          0                 1           2             5    8     1       0.7041883887E+00       5    8    1         0.3843377693E+02      0.5170818037E+02
          0                 2           2             4    6     1      -0.3623897977E+00       4    6    1        -0.1985984341E+02      0.3479829405E+02
          0                 3           2             4    7     1       0.2290733823E+00       4    6    1         0.1279835663E+02      0.2448937423E+02
          0                 4           2             4    7     1      -0.3411327634E+00       4    6    1        -0.1941171707E+02      0.4183342477E+02
          0                 5           2             4    8     1      -0.1394625988E+00       4    8    1        -0.8116996912E+01      0.1191830800E+02
          0                 6           2             4    8     1      -0.7625249332E-01       4    8    1        -0.4437099365E+01      0.5869215024E+01
          0                 7           2             4    8     1      -0.4168431846E-01       4    8    1        -0.2425918822E+01      0.3190703532E+01
          0                 8           2             4    8     1      -0.2278330237E-01       4    8    1        -0.1326122653E+01      0.1734830709E+01
          0                 9           2             4    8     1      -0.1245055778E-01       4    8    1        -0.7247989153E+00      0.9433188913E+00
          0                10           2             4    8     1      -0.6802865696E-02       4    8    1        -0.3960772735E+00      0.5129653019E+00
                                                   Max.-Head-Change                         Max.-Flux-Residual
  Residual-Control   Outer-Iter.   Inner-Iter.     Column Row Layer    Maximum-Head-Change  Column Row Layer    Maximum-Flux-Residual          L2-NORM 
          0                11           2             4    8     1      -0.3716452942E-02       4    8    1        -0.2164080872E+00      0.2789608324E+00
          0                12           2             4    8     1      -0.2030026103E-02       4    8    1        -0.1182226923E+00      0.1517128062E+00
          0                13           2             4    8     1      -0.1108698168E-02       4    8    1        -0.6457502028E-01      0.8251315199E-01
          0                14           2             4    8     1      -0.6054330594E-03       4    8    1        -0.3526688168E-01      0.4487911973E-01
          0                15           2             4    8     1      -0.3305691267E-03       4    8    1        -0.1925797995E-01      0.2441091796E-01
          0                16           2             4    8     1      -0.1804695629E-03       4    8    1        -0.1051472247E-01      0.1327825609E-01
          0                17           1             4    8     1      -0.9851292674E-04       4    8    1        -0.5740245498E-02      0.7222935535E-02

    ------------------------------------------------
       NWT REQUIRED           17 OUTER ITERATIONS 
       AND A TOTAL OF         33 INNER ITERATIONS.
    ------------------------------------------------

 NO OUTPUT CONTROL FOR STRESS PERIOD   30   TIME STEP   29
 
 SOLVING FOR HEAD 
                                                   Max.-Head-Change                         Max.-Flux-Residual
  Residual-Control   Outer-Iter.   Inner-Iter.     Column Row Layer    Maximum-Head-Change  Column Row Layer    Maximum-Flux-Residual          L2-NORM 
          0                 1           2             4    8     1       0.9028407073E+00       4    8    1         0.4842944755E+02      0.8548886291E+02
          0                 2           2             4    6     1      -0.3586257727E+00       4    6    1        -0.1987900912E+02      0.2872107856E+02
          0                 3           2             4    8     1       0.2659429252E+00       4    8    1         0.1410076818E+02      0.3055779119E+02
          0                 4           2             4    7     1      -0.3387297817E+00       4    7    1        -0.1940045939E+02      0.3724832993E+02
          0                 5           2             5    7     1      -0.1224203531E+00       5    7    1        -0.7139529748E+01      0.1339909723E+02
          0                 6           2             5    7     1      -0.6686144890E-01       5    7    1        -0.3900441209E+01      0.7149193784E+01
          0                 7           2             5    7     1      -0.3648495326E-01       5    7    1        -0.2129922390E+01      0.3822417474E+01
          0                 8           2             5    7     1      -0.1989313280E-01       5    7    1        -0.1162115758E+01      0.2046318273E+01
          0                 9           2             5    7     1      -0.1083866195E-01       5    7    1        -0.6335657863E+00      0.1096732962E+01
          0                10           2             5    7     1      -0.5901463417E-02       5    7    1        -0.3451603242E+00      0.5883973548E+00
                                                   Max.-Head-Change                         Max.-Flux-Residual
  Residual-Control   Outer-Iter.   Inner-Iter.     Column Row Layer    Maximum-Head-Change  Column Row Layer    Maximum-Flux-Residual          L2-NORM 
          0                11           2             5    7     1      -0.3211300160E-02       5    7    1        -0.1879164378E+00      0.3159629060E+00
          0                12           2             5    7     1      -0.1746474473E-02       5    7    1        -0.1022465423E+00      0.1698064393E+00
          0                13           2             5    7     1      -0.9493459719E-03       5    7    1        -0.5560260898E-01      0.9132413506E-01
          0                14           2             5    7     1      -0.5158061018E-03       5    7    1        -0.3022211848E-01      0.4914672098E-01
          0                15           2             5    7     1      -0.2801335436E-03       5    7    1        -0.1641936575E-01      0.2646358625E-01
          0                16           2             5    7     1      -0.1520813028E-03       5    7    1        -0.8916745686E-02      0.1425669443E-01
          0                17           1             5    7     1      -0.8253401214E-04       5    7    1        -0.4840499018E-02      0.7683848887E-02

    ------------------------------------------------
       NWT REQUIRED           17 OUTER ITERATIONS 
       AND A TOTAL OF         33 INNER ITERATIONS.
    ------------------------------------------------

 NO OUTPUT CONTROL FOR STRESS PERIOD   30   TIME STEP   30



 STREAM LISTING     PERIOD     30   STEP       30

 LAYER ROW COL. STREAM  RCH.  FLOW INTO     FLOW TO   FLOW OUT OF   OVRLND.     DIRECT     STREAM       STREAM     STREAM     STREAM   STREAMBED  STREAMBED
                SEG.NO.  NO.  STRM. RCH.    AQUIFER    STRM. RCH.    RUNOFF     PRECIP       ET          HEAD       DEPTH      WIDTH   CONDCTNC.   GRADIENT

   1    1    1     1     1    7.4248E+01  4.1988E-01   7.3828E+01  0.000E+00  0.000E+00  0.000E+00  1.09474E+03  1.690E+00  1.990E+01  8.954E-02  1.563E+00
   1    2    2     1     2    7.3828E+01  6.5043E-01   7.3177E+01  0.000E+00  0.000E+00  0.000E+00  1.08974E+03  1.684E+00  1.984E+01  1.389E-01  1.561E+00
   1    3    3     1     3    7.3177E+01  5.5489E-01   7.2623E+01  0.000E+00  0.000E+00  0.000E+00  1.08410E+03  1.677E+00  1.977E+01  1.186E-01  1.559E+00
   1    3    4     1     4    7.2623E+01  5.1112E-01   7.2111E+01  0.000E+00  0.000E+00  0.000E+00  1.07908E+03  1.671E+00  1.972E+01  1.094E-01  1.557E+00
   1    4    5     2     1    7.0111E+01  4.0856E-01   6.9703E+01  0.000E+00  0.000E+00  0.000E+00  1.07417E+03  2.238E+00  1.200E+01  7.800E-02  1.746E+00
   1    5    6     2     2    6.9703E+01  3.1386E-01   6.9389E+01  0.000E+00  0.000E+00  0.000E+00  1.06874E+03  2.231E+00  1.200E+01  6.000E-02  1.744E+00
   1    6    6     2     3    6.9389E+01  3.1350E-01   6.9075E+01  0.000E+00  0.000E+00  0.000E+00  1.06402E+03  2.225E+00  1.200E+01  6.000E-02  1.742E+00
   1    7    6     2     4    6.9075E+01  3.1314E-01   6.8762E+01  0.000E+00  0.000E+00  0.000E+00  1.05929E+03  2.219E+00  1.200E+01  6.000E-02  1.740E+00
   1    8    6     2     5    6.8762E+01  3.1277E-01   6.8450E+01  0.000E+00  0.000E+00  0.000E+00  1.05457E+03  2.213E+00  1.200E+01  6.000E-02  1.738E+00
   1    3    5     3     1    2.0000E+00  2.8252E-01   1.7175E+00  0.000E+00  0.000E+00  0.000E+00  1.07555E+03  1.909E+00  9.636E+00  7.227E-02  1.955E+00
   1    3    6     3     2    1.7175E+00  2.4905E-01   1.4684E+00  0.000E+00  0.000E+00  0.000E+00  1.07264E+03  1.727E+00  8.909E+00  6.682E-02  1.864E+00
   1    3    7     3     3    1.4684E+00  1.9718E-01   1.2712E+00  0.000E+00  0.000E+00  0.000E+00  1.06987E+03  1.555E+00  8.218E+00  5.547E-02  1.777E+00
   1    4    8     3     4    1.2712E+00  2.2567E-01   1.0456E+00  0.000E+00  0.000E+00  0.000E+00  1.06682E+03  1.364E+00  7.455E+00  6.709E-02  1.682E+00
   1    5    8     3     5    1.0456E+00  1.5790E-01   8.8768E-01  0.000E+00  0.000E+00  0.000E+00  1.06362E+03  1.164E+00  6.655E+00  4.991E-02  1.582E+00
   1    6    8     3     6    8.8768E-01  5.5980E-02   8.3170E-01  0.000E+00  0.000E+00  0.000E+00  1.06158E+03  1.036E+00  6.145E+00  1.844E-02  1.518E+00
   1    5   10     4     1    1.0000E+01  9.0919E-02   9.9091E+00  0.000E+00  0.000E+00  0.000E+00  1.07836E+03  6.368E-01  1.000E+01  2.500E-02  1.212E+00
   1    5    9     4     2    9.9091E+00  1.8158E-01   9.7275E+00  0.000E+00  0.000E+00  0.000E+00  1.07154E+03  6.315E-01  1.000E+01  5.000E-02  1.211E+00
   1    6    8     4     3    9.7275E+00  1.2689E-01   9.6006E+00  0.000E+00  0.000E+00  0.000E+00  1.06381E+03  6.256E-01  1.000E+01  3.500E-02  1.209E+00
   1    6    8     5     1    1.0432E+01  2.2686E-01   1.0205E+01  0.000E+00  0.000E+00  0.000E+00  1.05868E+03  6.790E-01  1.542E+01  6.166E-02  1.226E+00
   1    7    7     5     2    1.0205E+01  2.7894E-01   9.9265E+00  0.000E+00  0.000E+00  0.000E+00  1.05417E+03  6.732E-01  1.519E+01  7.594E-02  1.224E+00
   1    8    7     5     3    9.9265E+00  1.9221E-01   9.7343E+00  0.000E+00  0.000E+00  0.000E+00  1.04992E+03  6.676E-01  1.497E+01  5.241E-02  1.223E+00
   1    8    6     5     4    9.7343E+00  1.3577E-01   9.5985E+00  0.000E+00  0.000E+00  0.000E+00  1.04691E+03  6.637E-01  1.482E+01  3.706E-02  1.221E+00
   1    9    6     6     1    9.5985E+00  2.2097E-01   9.3776E+00  0.000E+00  0.000E+00  0.000E+00  1.04341E+03  6.828E-01  1.200E+01  6.000E-02  1.228E+00
   1   10    7     6     2    9.3776E+00  2.2039E-01   9.1572E+00  0.000E+00  0.000E+00  0.000E+00  1.03885E+03  6.732E-01  1.200E+01  6.000E-02  1.224E+00
   1   11    7     6     3    9.1572E+00  2.1981E-01   8.9374E+00  0.000E+00  0.000E+00  0.000E+00  1.03430E+03  6.636E-01  1.200E+01  6.000E-02  1.221E+00
   1   12    7     6     4    8.9374E+00  2.1923E-01   8.7181E+00  0.000E+00  0.000E+00  0.000E+00  1.02974E+03  6.539E-01  1.200E+01  6.000E-02  1.218E+00
   1   13    7     6     5    8.7181E+00 -1.1197E-01   8.8301E+00  0.000E+00  0.000E+00  0.000E+00  1.02656E+03  6.515E-01  1.200E+01  2.400E-01 -1.555E-01
   1   14    9     7     1    1.5000E+02  1.3478E+00   1.4865E+02  0.000E+00  0.000E+00  0.000E+00  1.03987E+03  2.288E+00  5.529E+01  5.593E-01  8.032E-01
   1   13    8     7     2    1.4865E+02  1.8525E+00   1.4680E+02  0.000E+00  0.000E+00  0.000E+00  1.03478E+03  2.279E+00  5.526E+01  6.148E-01  1.004E+00
   1   13    7     7     3    1.4680E+02  1.4868E+00   1.4531E+02  0.000E+00  0.000E+00  0.000E+00  1.02969E+03  2.270E+00  5.522E+01  5.584E-01  8.875E-01
   1   13    6     8     1    1.5414E+02  8.3861E-01   1.5330E+02  0.000E+00  0.000E+00  0.000E+00  1.02472E+03  2.843E+00  4.122E+01  4.201E-01  6.655E-01
   1   13    5     8     2    1.5330E+02  1.0898E-01   1.5320E+02  0.000E+00  0.000E+00  0.000E+00  1.01846E+03  2.840E+00  4.117E+01  4.196E-01  8.658E-02
   1   13    4     8     3    1.5320E+02 -2.6542E+00   1.5585E+02  0.000E+00  0.000E+00  0.000E+00  1.01222E+03  2.848E+00  4.130E+01  4.209E+00 -2.102E-01
   1   13    3     8     4    1.5585E+02 -3.7573E+00   1.5961E+02  0.000E+00  0.000E+00  0.000E+00  1.00600E+03  2.870E+00  4.162E+01  4.241E+00 -2.953E-01
   1   13    2     8     5    1.5961E+02 -2.6443E+00   1.6225E+02  0.000E+00  0.000E+00  0.000E+00  9.99767E+02  2.892E+00  4.194E+01  4.273E+00 -2.063E-01
   1   13    1     8     6    1.6225E+02 -2.0498E+00   1.6430E+02  0.000E+00  0.000E+00  0.000E+00  9.94783E+02  2.908E+00  4.216E+01  2.578E+00 -2.650E-01
   1    8    6     9     1    6.8450E+01  0.0000E+00   6.8450E+01  0.000E+00  0.000E+00  0.000E+00  1.08594E+03  7.186E+00  4.000E+00  0.000E+00  3.395E+00
   1    8    5     9     2    6.8450E+01  0.0000E+00   6.8450E+01  0.000E+00  0.000E+00  0.000E+00  1.08544E+03  7.186E+00  4.000E+00  0.000E+00  3.395E+00





UNSATURATED ZONE PACKAGE VOLUMETRIC BUDGET FOR  TIME STEP    30 STRESS PERIOD   30
  ------------------------------------------------------------------------------



     CUMULATIVE VOLUMES      L**3       RATES FOR THIS TIME STEP      L**3/T
     ------------------                 ------------------------

           IN:                                      IN:
           ---                                      ---
        INFILTRATION =  3471473743.1080          INFILTRATION =         227.5084

          OUT:                                     OUT:
          ----                                     ----
              UZF ET =   895804836.6543                UZF ET =           8.3175
        UZF RECHARGE =  1662229289.9790          UZF RECHARGE =         200.9669

            IN - OUT =   913439616.4747              IN - OUT =          18.2240

          STORAGE:                                 STORAGE:
          --------                                 --------
      STORAGE CHANGE =   913434405.8574        STORAGE CHANGE =          18.2240

 PERCENT DISCREPANCY IS DIFFERENCE BETWEEN IN-OUT MINUS CHANGE IN STORAGE
 DIVIDED BY THE AVERAGE OF IN AND OUT TIMES 100

 PERCENT DISCREPANCY =           0.00     PERCENT DISCREPANCY =          -0.00






1
  VOLUMETRIC BUDGET FOR AGRICULTURAL FIELDS AT  END OF TIME STEP   30, STRESS PERIOD  30
  ------------------------------------------------------------------------------

     CUMULATIVE VOLUMES      L**3       RATES FOR THIS TIME STEP      L**3/T
     ------------------                 ------------------------

           IN:                                      IN:
           ---                                      ---
           AG WELLS      =  2197649664.0000             AG WELLS      =         158.2100
      DIVERSION SEGMENTS =  1209088000.0000        DIVERSION SEGMENTS =          68.4496
           GW IRRIGATION =           0.0000             GW IRRIGATION =           0.0000
           SW IRRIGATION =           0.0000             SW IRRIGATION =           0.0000
        SYSTEM LOSSES GW =           0.0000          SYSTEM LOSSES GW =           0.0000
        SYSTEM LOSSES SW =           0.0000          SYSTEM LOSSES SW =           0.0000

                TOTAL IN =  3406737664.0000                  TOTAL IN =         226.6595

          OUT:                                     OUT:
          ----                                     ----
           AG WELLS      =           0.0000             AG WELLS      =           0.0000
      DIVERSION SEGMENTS =           0.0000        DIVERSION SEGMENTS =           0.0000
           GW IRRIGATION =  2197649664.0000             GW IRRIGATION =         158.2100
           SW IRRIGATION =  1209112064.0000             SW IRRIGATION =          68.4509
        SYSTEM LOSSES GW =           0.0000          SYSTEM LOSSES GW =           0.0000
        SYSTEM LOSSES SW =           0.0000          SYSTEM LOSSES SW =           0.0000

               TOTAL OUT =  3406761728.0000                 TOTAL OUT =         226.6609

                IN - OUT =      -24064.0000                  IN - OUT =      -1.3580E-03

     PERCENT DISCREPANCY =          -0.00         PERCENT DISCREPANCY =          -0.00



1
  VOLUMETRIC BUDGET FOR ENTIRE MODEL AT END OF TIME STEP   30, STRESS PERIOD  30
  ------------------------------------------------------------------------------

     CUMULATIVE VOLUMES      L**3       RATES FOR THIS TIME STEP      L**3/T
     ------------------                 ------------------------

           IN:                                      IN:
           ---                                      ---
             STORAGE     =  2212814336.0000               STORAGE     =          83.2472
       CONSTANT HEAD     =           0.0000         CONSTANT HEAD     =           0.0000
     HEAD DEP BOUNDS     =    21844114.0000       HEAD DEP BOUNDS     =           0.2866
      STREAM LEAKAGE     =   912511360.0000        STREAM LEAKAGE     =          12.7147
        UZF RECHARGE     =  1662228608.0000          UZF RECHARGE     =         200.9669
               GW ET     =           0.0000                 GW ET     =           0.0000
     SURFACE LEAKAGE     =           0.0000       SURFACE LEAKAGE     =           0.0000
           AG WELLS      =           0.0000             AG WELLS      =           0.0000

                TOTAL IN =  4809398272.0000                  TOTAL IN =         297.2154

          OUT:                                     OUT:
          ----                                     ----
             STORAGE     =  1767966592.0000               STORAGE     =         127.5078
       CONSTANT HEAD     =           0.0000         CONSTANT HEAD     =           0.0000
     HEAD DEP BOUNDS     =    22113826.0000       HEAD DEP BOUNDS     =           0.2880
      STREAM LEAKAGE     =   821555520.0000        STREAM LEAKAGE     =          11.2175
        UZF RECHARGE     =           0.0000          UZF RECHARGE     =           0.0000
               GW ET     =      151061.6094                 GW ET     =           0.0000
     SURFACE LEAKAGE     =           0.0000       SURFACE LEAKAGE     =           0.0000
           AG WELLS      =  2197649664.0000             AG WELLS      =         158.2100

               TOTAL OUT =  4809436672.0000                 TOTAL OUT =         297.2232

                IN - OUT =      -38400.0000                  IN - OUT =      -7.8430E-03

     PERCENT DISCREPANCY =          -0.00         PERCENT DISCREPANCY =          -0.00






         TIME SUMMARY AT END OF TIME STEP   30 IN STRESS PERIOD   30
                    SECONDS     MINUTES      HOURS       DAYS        YEARS
                    -----------------------------------------------------------
   TIME STEP LENGTH  87667.      1461.1      24.352      1.0147     2.77799E-03
 STRESS PERIOD TIME 2.63000E+06  43833.      730.56      30.440     8.33397E-02
         TOTAL TIME 7.63565E+07 1.27261E+06  21210.      883.76      2.4196    
1
1
                            STRESS PERIOD NO.   31, LENGTH =   2630000.    
                            -----------------------------------------------

                              NUMBER OF TIME STEPS =    30

                               MULTIPLIER FOR DELT =     1.000

                            INITIAL TIME STEP SIZE =   87666.66    

 REUSING NON-PARAMETER GHB CELLS FROM LAST STRESS PERIOD

      2 GHB CELLS

 REUSING STREAM SEGMENT DATA FROM LAST STRESS PERIOD



            AREAL INFILTRATION RATE
 READING ON UNIT   19 WITH FORMAT: (FREE)              

            1           2           3           4           5           6           7           8           9          10
 ........................................................................................................................
   1   1.0000E-10  2.0000E-10   0.000       0.000       0.000       0.000       0.000       0.000       0.000       0.000    
   2   2.0000E-10  1.0000E-10  2.0000E-10   0.000       0.000      8.0000E-10  8.0000E-10  5.0000E-10   0.000       0.000    
   3    0.000      5.0000E-10  1.0000E-10  1.0000E-10  8.0000E-10  8.0000E-10  5.0000E-10  5.0000E-10   0.000       0.000    
   4   8.0000E-10  5.0000E-10  1.0000E-10  1.0000E-10  1.0000E-10  1.0000E-10  1.0000E-10  1.0000E-10  2.0000E-10   0.000    
   5   8.0000E-10  5.0000E-10  1.0000E-10  1.0000E-10  1.0000E-10  1.0000E-10  1.0000E-10  1.0000E-10  1.0000E-10  1.0000E-10
   6   8.0000E-10  5.0000E-10  5.0000E-10  2.0000E-10  2.0000E-10  1.0000E-10  1.0000E-10  1.0000E-10  1.0000E-10  5.0000E-10
   7   8.0000E-10  5.0000E-10  5.0000E-10  2.0000E-10  2.0000E-10  1.0000E-10  1.0000E-10  2.0000E-10  2.0000E-10   0.000    
   8    0.000      5.0000E-10  5.0000E-10  2.0000E-10  2.0000E-10  1.0000E-10  1.0000E-10  2.0000E-10  5.0000E-10   0.000    
   9    0.000      5.0000E-10  5.0000E-10  2.0000E-10  2.0000E-10  1.0000E-10  1.0000E-10  2.0000E-10  5.0000E-10   0.000    
  10    0.000      5.0000E-10  5.0000E-10  2.0000E-10  2.0000E-10  1.0000E-10  1.0000E-10  2.0000E-10  5.0000E-10  8.0000E-10
  11    0.000      1.0000E-10  1.0000E-10  1.0000E-10  1.0000E-10  1.0000E-10  1.0000E-10  2.0000E-10  5.0000E-10   0.000    
  12   1.0000E-10  1.0000E-10  1.0000E-10  1.0000E-10  1.0000E-10  1.0000E-10  1.0000E-10  1.0000E-10  2.0000E-10   0.000    
  13   1.0000E-10  1.0000E-10  2.0000E-10  2.0000E-10  2.0000E-10  2.0000E-10  2.0000E-10  1.0000E-10  1.0000E-10   0.000    
  14    0.000      2.0000E-10  5.0000E-10  5.0000E-10  5.0000E-10  5.0000E-10  5.0000E-10  2.0000E-10  1.0000E-10   0.000    
  15    0.000       0.000      8.0000E-10  8.0000E-10  8.0000E-10  8.0000E-10   0.000       0.000       0.000       0.000    

                  ET RATE =  1.500000E-07

 USING ET EXTINCTION DEPTH FROM PREVIOUS STRESS PERIOD. CURRENT PERIOD IS:      31

 USING EXTINCTION WATER CONTENT FROM PREVIOUS STRESS PERIOD. CURRENT PERIOD IS:      31

 USING AIR ENTRY PRESSURE FROM PREVIOUS STRESS PERIOD. CURRENT PERIOD IS:      31

 USING ROOT PRESSURE HEAD FROM PREVIOUS STRESS PERIOD. CURRENT PERIOD IS:      31

 USING ROOT ACTIVITY FROM PREVIOUS STRESS PERIOD. CURRENT PERIOD IS:      31

 PROCESSING AG STRESS PERIOD DATA

 READING AG STRESS PERIOD DATA

 READING IRRIGATION SEGMENT

 READING IRRIGATION WELL

 READING SUPPLEMENTAL WELL

 END PROCESSING AG STRESS PERIOD DATA OPTIONS
 
 SOLVING FOR HEAD 
                                                   Max.-Head-Change                         Max.-Flux-Residual
  Residual-Control   Outer-Iter.   Inner-Iter.     Column Row Layer    Maximum-Head-Change  Column Row Layer    Maximum-Flux-Residual          L2-NORM 
          0                 1           2             5    7     1       0.8856468044E+00       5    7    1         0.4755956545E+02      0.9088426179E+02
          0                 2           2             5    7     1       0.4473042112E+00       5    7    1         0.2407276164E+02      0.4439328634E+02
          0                 3           2             5    7     1       0.2258777205E+00       5    7    1         0.1215287369E+02      0.2242405300E+02
          0                 4           2             5    7     1       0.1140658476E+00       5    7    1         0.6137086356E+01      0.1133924107E+02
          0                 5           2             5    7     1       0.5760366972E-01       5    7    1         0.3099208206E+01      0.5734728857E+01
          0                 6           2             5    7     1       0.2909092311E-01       5    7    1         0.1565124342E+01      0.2900604479E+01
          0                 7           2             4    8     1       0.1474422075E-01       5    7    1         0.7904223978E+00      0.1467274817E+01
          0                 8           2             4    8     1       0.7481991131E-02       4    8    1         0.4009284952E+00      0.7422998663E+00
          0                 9           2             4    8     1       0.3797130176E-02       4    8    1         0.2034557721E+00      0.3755694704E+00
          0                10           2             4    8     1       0.1927231600E-02       4    8    1         0.1032560383E+00      0.1900387207E+00
                                                   Max.-Head-Change                         Max.-Flux-Residual
  Residual-Control   Outer-Iter.   Inner-Iter.     Column Row Layer    Maximum-Head-Change  Column Row Layer    Maximum-Flux-Residual          L2-NORM 
          0                11           2             4    8     1       0.9782497716E-03       4    8    1         0.5240835312E-01      0.9616849896E-01
          0                12           2             4    8     1       0.4965928297E-03       4    8    1         0.2660250443E-01      0.4866991497E-01
          0                13           2             4    8     1       0.2521061905E-03       4    8    1         0.1350451347E-01      0.2463335298E-01
          0                14           2             4    8     1       0.1279960601E-03       4    8    1         0.6855945033E-02      0.1246866457E-01
          0                15           1             4    8     1       0.6498861302E-04       4    8    1         0.3480850340E-02      0.6311726827E-02

    ------------------------------------------------
       NWT REQUIRED           15 OUTER ITERATIONS 
       AND A TOTAL OF         29 INNER ITERATIONS.
    ------------------------------------------------

 NO OUTPUT CONTROL FOR STRESS PERIOD   31   TIME STEP    1
 
 SOLVING FOR HEAD 
                                                   Max.-Head-Change                         Max.-Flux-Residual
  Residual-Control   Outer-Iter.   Inner-Iter.     Column Row Layer    Maximum-Head-Change  Column Row Layer    Maximum-Flux-Residual          L2-NORM 
          0                 1           2             5    7     1       0.8257745091E+00       5    7    1         0.4404221787E+02      0.8826635822E+02
          0                 2           2             5    7     1       0.4220733400E+00       5    7    1         0.2247620501E+02      0.4483890662E+02
          0                 3           2             5    7     1       0.2156284882E+00       5    7    1         0.1149150932E+02      0.2277735196E+02
          0                 4           2             5    7     1       0.1100639238E+00       5    7    1         0.5870040535E+01      0.1153252548E+02
          0                 5           2             5    7     1       0.5613726521E-01       5    7    1         0.2995834795E+01      0.5852329927E+01
          0                 6           2             5    7     1       0.2861527033E-01       5    7    1         0.1527821241E+01      0.2975246629E+01
          0                 7           2             5    7     1       0.1457962588E-01       5    7    1         0.7787158250E+00      0.1514865266E+01
          0                 8           2             5    7     1       0.7426584763E-02       5    7    1         0.3967316874E+00      0.7729230214E+00
          0                 9           2             5    7     1       0.3784675681E-02       5    7    1         0.2020808141E+00      0.3968202377E+00
          0                10           2             5    7     1       0.1929798208E-02       5    7    1         0.1029926368E+00      0.2038268958E+00
                                                   Max.-Head-Change                         Max.-Flux-Residual
  Residual-Control   Outer-Iter.   Inner-Iter.     Column Row Layer    Maximum-Head-Change  Column Row Layer    Maximum-Flux-Residual          L2-NORM 
          0                11           2             5    7     1       0.9845279261E-03       5    7    1         0.5252053009E-01      0.1047417722E+00
          0                12           2             5    7     1       0.5025354318E-03       5    7    1         0.2679681290E-01      0.5384573487E-01
          0                13           2             4    8     1       0.2569369845E-03       5    7    1         0.1367911427E-01      0.2769104872E-01
          0                14           2             4    8     1       0.1315037870E-03       4    8    1         0.6996438548E-02      0.1424522697E-01
          0                15           1             4    8     1       0.6733505566E-04       4    8    1         0.3581140840E-02      0.7330400758E-02

    ------------------------------------------------
       NWT REQUIRED           15 OUTER ITERATIONS 
       AND A TOTAL OF         29 INNER ITERATIONS.
    ------------------------------------------------

 NO OUTPUT CONTROL FOR STRESS PERIOD   31   TIME STEP    2
 
 SOLVING FOR HEAD 
                                                   Max.-Head-Change                         Max.-Flux-Residual
  Residual-Control   Outer-Iter.   Inner-Iter.     Column Row Layer    Maximum-Head-Change  Column Row Layer    Maximum-Flux-Residual          L2-NORM 
          0                 1           2             4    6     1       0.9215874084E+00       4    6    1         0.4904929393E+02      0.1035218325E+03
          0                 2           2             4    7     1       0.4020556857E+00       4    6    1         0.2135004093E+02      0.4409844129E+02
          0                 3           2             4    7     1       0.2810580711E+00       4    7    1         0.1472486796E+02      0.3182127616E+02
          0                 4           2             4    7     1       0.1464610934E+00       4    7    1         0.7676684473E+01      0.1640472221E+02
          0                 5           2             4    7     1       0.7625378136E-01       4    7    1         0.4000033271E+01      0.8409056973E+01
          0                 6           2             4    7     1       0.3964477035E-01       4    7    1         0.2082266205E+01      0.4278641933E+01
          0                 7           2             4    7     1       0.2058419146E-01       4    7    1         0.1082320465E+01      0.2181174912E+01
          0                 8           2             4    7     1       0.1067539331E-01       4    7    1         0.5618407825E+00      0.1113620192E+01
          0                 9           2             4    7     1       0.5530988193E-02       4    7    1         0.2913298551E+00      0.5692622249E+00
          0                10           2             4    7     1       0.2863168595E-02       4    7    1         0.1509161945E+00      0.2912786303E+00
                                                   Max.-Head-Change                         Max.-Flux-Residual
  Residual-Control   Outer-Iter.   Inner-Iter.     Column Row Layer    Maximum-Head-Change  Column Row Layer    Maximum-Flux-Residual          L2-NORM 
          0                11           2             4    7     1       0.1481032815E-02       4    7    1         0.7811255865E-01      0.1491556333E+00
          0                12           2             4    7     1       0.7655917742E-03       4    7    1         0.4040052385E-01      0.7642524709E-01
          0                13           2             4    7     1       0.3955305539E-03       4    7    1         0.2088211181E-01      0.3917831909E-01
          0                14           2             4    7     1       0.2042412454E-03       4    7    1         0.1078742032E-01      0.2009201546E-01
          0                15           1             4    7     1       0.1054177456E-03       4    7    1         0.5569884751E-02      0.1030708899E-01
          0                16           1             4    7     1       0.5438930843E-04       4    7    1         0.2874655556E-02      0.5288793351E-02

    ------------------------------------------------
       NWT REQUIRED           16 OUTER ITERATIONS 
       AND A TOTAL OF         30 INNER ITERATIONS.
    ------------------------------------------------

 NO OUTPUT CONTROL FOR STRESS PERIOD   31   TIME STEP    3
 
 SOLVING FOR HEAD 
                                                   Max.-Head-Change                         Max.-Flux-Residual
  Residual-Control   Outer-Iter.   Inner-Iter.     Column Row Layer    Maximum-Head-Change  Column Row Layer    Maximum-Flux-Residual          L2-NORM 
          0                 1           2             4    7     1       0.8900032553E+00       4    7    1         0.4666843975E+02      0.9922576070E+02
          0                 2           2             4    6     1       0.4488472960E+00       4    6    1         0.2384123957E+02      0.5024948486E+02
          0                 3           2             4    6     1       0.1593677149E+00       4    6    1         0.8481654568E+01      0.1669227685E+02
          0                 4           2             4    7     1       0.1525749228E+00       4    6    1         0.8084635228E+01      0.1755020151E+02
          0                 5           2             4    7     1       0.7943066470E-01       4    7    1         0.4167502194E+01      0.8920113118E+01
          0                 6           2             4    7     1       0.4128250289E-01       4    7    1         0.2168935510E+01      0.4542390781E+01
          0                 7           2             4    7     1       0.2142534217E-01       4    7    1         0.1126966280E+01      0.2316413842E+01
          0                 8           2             4    7     1       0.1110619099E-01       4    7    1         0.5847580111E+00      0.1182572762E+01
          0                 9           2             4    7     1       0.5751143614E-02       4    7    1         0.3030618066E+00      0.6042434342E+00
          0                10           2             4    7     1       0.2975489394E-02       4    7    1         0.1569096776E+00      0.3089488017E+00
                                                   Max.-Head-Change                         Max.-Flux-Residual
  Residual-Control   Outer-Iter.   Inner-Iter.     Column Row Layer    Maximum-Head-Change  Column Row Layer    Maximum-Flux-Residual          L2-NORM 
          0                11           2             4    7     1       0.1538263704E-02       4    7    1         0.8116956854E-01      0.1580480575E+00
          0                12           2             4    7     1       0.7947233028E-03       4    7    1         0.4195784947E-01      0.8088581274E-01
          0                13           2             4    7     1       0.4103471558E-03       4    7    1         0.2167469255E-01      0.4140948621E-01
          0                14           2             4    7     1       0.2117722102E-03       4    7    1         0.1119048437E-01      0.2120527475E-01
          0                15           1             4    7     1       0.1092434640E-03       4    7    1         0.5774732457E-02      0.1086133563E-01
          0                16           1             4    7     1       0.5633181460E-04       4    7    1         0.2978708696E-02      0.5564182388E-02

    ------------------------------------------------
       NWT REQUIRED           16 OUTER ITERATIONS 
       AND A TOTAL OF         30 INNER ITERATIONS.
    ------------------------------------------------

 NO OUTPUT CONTROL FOR STRESS PERIOD   31   TIME STEP    4
 
 SOLVING FOR HEAD 
                                                   Max.-Head-Change                         Max.-Flux-Residual
  Residual-Control   Outer-Iter.   Inner-Iter.     Column Row Layer    Maximum-Head-Change  Column Row Layer    Maximum-Flux-Residual          L2-NORM 
          0                 1           2             4    7     1       0.8714320925E+00       4    7    1         0.4572938130E+02      0.9532099791E+02
          0                 2           2             4    7     1       0.4533277649E+00       4    7    1         0.2379399270E+02      0.4901599849E+02
          0                 3           2             4    7     1       0.1639666076E+00       4    7    1         0.8632457792E+01      0.1620040040E+02
          0                 4           2             4    7     1       0.1567116462E+00       4    7    1         0.8219296511E+01      0.1730726775E+02
          0                 5           2             4    7     1       0.8155812306E-01       4    7    1         0.4279452577E+01      0.8823784204E+01
          0                 6           2             4    7     1       0.4242376595E-01       4    7    1         0.2226994574E+01      0.4507463758E+01
          0                 7           2             4    7     1       0.2205604103E-01       4    7    1         0.1158311612E+01      0.2306019999E+01
          0                 8           2             4    7     1       0.1146106377E-01       4    7    1         0.6021544892E+00      0.1181132226E+01
          0                 9           2             4    7     1       0.5952587819E-02       4    7    1         0.3128742646E+00      0.6055133286E+00
          0                10           2             4    7     1       0.3090124992E-02       4    7    1         0.1624860073E+00      0.3106352913E+00
                                                   Max.-Head-Change                         Max.-Flux-Residual
  Residual-Control   Outer-Iter.   Inner-Iter.     Column Row Layer    Maximum-Head-Change  Column Row Layer    Maximum-Flux-Residual          L2-NORM 
          0                11           2             4    7     1       0.1603402086E-02       4    7    1         0.8434364699E-01      0.1594456948E+00
          0                12           2             4    7     1       0.8315961795E-03       4    7    1         0.4376087942E-01      0.8187639593E-01
          0                13           2             4    7     1       0.4311159390E-03       4    7    1         0.2269470558E-01      0.4205810591E-01
          0                14           2             4    7     1       0.2234062811E-03       4    7    1         0.1176456549E-01      0.2161006798E-01
          0                15           1             4    7     1       0.1157243183E-03       4    7    1         0.6096046156E-02      0.1110593916E-01
          0                16           1             4    7     1       0.5992251804E-04       4    7    1         0.3157547402E-02      0.5708601312E-02

    ------------------------------------------------
       NWT REQUIRED           16 OUTER ITERATIONS 
       AND A TOTAL OF         30 INNER ITERATIONS.
    ------------------------------------------------

 NO OUTPUT CONTROL FOR STRESS PERIOD   31   TIME STEP    5
 
 SOLVING FOR HEAD 
                                                   Max.-Head-Change                         Max.-Flux-Residual
  Residual-Control   Outer-Iter.   Inner-Iter.     Column Row Layer    Maximum-Head-Change  Column Row Layer    Maximum-Flux-Residual          L2-NORM 
          0                 1           2             4    7     1       0.8504019524E+00       4    7    1         0.4465851472E+02      0.8932841363E+02
          0                 2           2             4    7     1       0.4416378027E+00       4    7    1         0.2321645384E+02      0.4509809392E+02
          0                 3           2             4    7     1       0.1574622526E+00       4    7    1         0.8309664002E+01      0.1447735194E+02
          0                 4           2             4    7     1       0.1531038348E+00       4    7    1         0.8039837572E+01      0.1625690361E+02
          0                 5           2             4    7     1       0.7956495525E-01       4    7    1         0.4179952335E+01      0.8324979585E+01
          0                 6           2             4    7     1       0.4132750215E-01       4    7    1         0.2172060964E+01      0.4266617738E+01
          0                 7           2             4    7     1       0.2145577807E-01       4    7    1         0.1128118416E+01      0.2188039313E+01
          0                 8           2             4    7     1       0.1113381766E-01       4    7    1         0.5856335460E+00      0.1122631791E+01
          0                 9           2             4    7     1       0.5774922241E-02       4    7    1         0.3038735768E+00      0.5762148283E+00
          0                10           2             4    7     1       0.2994044065E-02       4    7    1         0.1576025627E+00      0.2958430872E+00
                                                   Max.-Head-Change                         Max.-Flux-Residual
  Residual-Control   Outer-Iter.   Inner-Iter.     Column Row Layer    Maximum-Head-Change  Column Row Layer    Maximum-Flux-Residual          L2-NORM 
          0                11           2             4    7     1       0.1551630242E-02       4    7    1         0.8170428780E-01      0.1519293337E+00
          0                12           2             4    7     1       0.8037931997E-03       4    7    1         0.4233949663E-01      0.7803773004E-01
          0                13           2             4    7     1       0.4162310393E-03       4    7    1         0.2193177893E-01      0.4008987569E-01
          0                14           2             4    7     1       0.2154599331E-03       4    7    1         0.1135631293E-01      0.2059774784E-01
          0                15           1             4    7     1       0.1114931544E-03       4    7    1         0.5878195487E-02      0.1058401036E-01
          0                16           1             4    7     1       0.5767491804E-04       4    7    1         0.3041596207E-02      0.5438997196E-02

    ------------------------------------------------
       NWT REQUIRED           16 OUTER ITERATIONS 
       AND A TOTAL OF         30 INNER ITERATIONS.
    ------------------------------------------------

 NO OUTPUT CONTROL FOR STRESS PERIOD   31   TIME STEP    6
 
 SOLVING FOR HEAD 
                                                   Max.-Head-Change                         Max.-Flux-Residual
  Residual-Control   Outer-Iter.   Inner-Iter.     Column Row Layer    Maximum-Head-Change  Column Row Layer    Maximum-Flux-Residual          L2-NORM 
          0                 1           2             4    7     1       0.8232087551E+00       4    7    1         0.4349739194E+02      0.7709994746E+02
          0                 2           2             4    7     1       0.4241467055E+00       4    7    1         0.2244713924E+02      0.3809549942E+02
          0                 3           2             4    7     1       0.1464136372E+00       4    7    1         0.7817189430E+01      0.1113130086E+02
          0                 4           2             4    7     1       0.1463320668E+00       4    7    1         0.7729428409E+01      0.1387206321E+02
          0                 5           2             4    7     1       0.7542459071E-01       4    7    1         0.3990548391E+01      0.6900250012E+01
          0                 6           2             4    7     1       0.3880916876E-01       4    7    1         0.2056219658E+01      0.3444290596E+01
          0                 7           2             4    7     1       0.1993896344E-01       4    7    1         0.1057723467E+01      0.1724250544E+01
          0                 8           2             4    7     1       0.1023060758E-01       4    7    1         0.5432964209E+00      0.8652860410E+00
          0                 9           2             4    7     1       0.5243270128E-02       4    7    1         0.2787052602E+00      0.4351089678E+00
          0                10           2             4    7     1       0.2684516563E-02       4    7    1         0.1428126259E+00      0.2191606233E+00
                                                   Max.-Head-Change                         Max.-Flux-Residual
  Residual-Control   Outer-Iter.   Inner-Iter.     Column Row Layer    Maximum-Head-Change  Column Row Layer    Maximum-Flux-Residual          L2-NORM 
          0                11           2             4    7     1       0.1373237156E-02       4    7    1         0.7310729261E-01      0.1105413717E+00
          0                12           2             4    7     1       0.7019173854E-03       4    7    1         0.3739200036E-01      0.5581852744E-01
          0                13           2             4    7     1       0.3585310719E-03       4    7    1         0.1911018467E-01      0.2821208484E-01
          0                14           2             4    7     1       0.1830215248E-03       4    7    1         0.9760176297E-02      0.1426997341E-01
          0                15           1             4    7     1       0.9337743923E-04       4    7    1         0.4981847797E-02      0.7222431217E-02

    ------------------------------------------------
       NWT REQUIRED           15 OUTER ITERATIONS 
       AND A TOTAL OF         29 INNER ITERATIONS.
    ------------------------------------------------

 NO OUTPUT CONTROL FOR STRESS PERIOD   31   TIME STEP    7
 
 SOLVING FOR HEAD 
                                                   Max.-Head-Change                         Max.-Flux-Residual
  Residual-Control   Outer-Iter.   Inner-Iter.     Column Row Layer    Maximum-Head-Change  Column Row Layer    Maximum-Flux-Residual          L2-NORM 
          0                 1           2             4    6     1       0.5908084945E+00       4    6    1         0.3158173619E+02      0.5302509619E+02
          0                 2           2             4    6     1       0.2725142007E+00       4    6    1         0.1459018726E+02      0.2439907518E+02
          0                 3           2             4    6     1       0.5511389643E-01       4    6    1         0.2985605917E+01      0.4093711456E+01
          0                 4           2             4    6     1       0.9576700588E-01       4    6    1         0.5102906076E+01      0.1006258183E+02
          0                 5           2             4    6     1       0.4441615899E-01       4    6    1         0.2364247855E+01      0.4756615807E+01
          0                 6           2             4    6     1       0.2062326509E-01       4    6    1         0.1096667792E+01      0.2250469919E+01
          0                 7           2             4    6     1       0.9586400157E-02       4    6    1         0.5092659458E+00      0.1065584177E+01
          0                 8           2             4    7     1       0.4503653392E-02       4    6    1         0.2367520054E+00      0.5049109115E+00
          0                 9           2             4    7     1       0.2124962159E-02       4    7    1         0.1116843183E+00      0.2394025900E+00
          0                10           2             4    7     1       0.1002311307E-02       4    7    1         0.5269278087E-01      0.1135813595E+00
                                                   Max.-Head-Change                         Max.-Flux-Residual
  Residual-Control   Outer-Iter.   Inner-Iter.     Column Row Layer    Maximum-Head-Change  Column Row Layer    Maximum-Flux-Residual          L2-NORM 
          0                11           2             4    7     1       0.4726541111E-03       5    6    1         0.2488746209E-01      0.5391735247E-01
          0                12           2             4    7     1       0.2228412187E-03       5    6    1         0.1215859109E-01      0.2560792595E-01
          0                13           1             4    7     1       0.1050458066E-03       5    6    1         0.5932011993E-02      0.1216823001E-01
          0                14           1             5    6     1       0.5061590397E-04       5    6    1         0.2890619848E-02      0.5784581346E-02

    ------------------------------------------------
       NWT REQUIRED           14 OUTER ITERATIONS 
       AND A TOTAL OF         26 INNER ITERATIONS.
    ------------------------------------------------

 NO OUTPUT CONTROL FOR STRESS PERIOD   31   TIME STEP    8
 
 SOLVING FOR HEAD 
                                                   Max.-Head-Change                         Max.-Flux-Residual
  Residual-Control   Outer-Iter.   Inner-Iter.     Column Row Layer    Maximum-Head-Change  Column Row Layer    Maximum-Flux-Residual          L2-NORM 
          0                 1           2             4    7     1       0.4789728219E+00       4    7    1         0.2531290596E+02      0.4501365775E+02
          0                 2           2             4    7     1       0.2243246066E+00       4    7    1         0.1186273421E+02      0.2039191573E+02
          0                 3           2             5    8     1      -0.3594788821E-01       5    8    1        -0.2039326578E+01      0.3048997958E+01
          0                 4           2             4    7     1       0.8678596767E-01       4    7    1         0.4565190317E+01      0.9192028067E+01
          0                 5           2             4    7     1       0.4081558459E-01       4    7    1         0.2145231759E+01      0.4393986786E+01
          0                 6           2             4    7     1       0.1921243945E-01       4    7    1         0.1008963882E+01      0.2102232597E+01
          0                 7           2             4    7     1       0.9051278029E-02       4    7    1         0.4749572028E+00      0.1006524580E+01
          0                 8           2             4    7     1       0.4267791341E-02       4    7    1         0.2237724542E+00      0.4822322216E+00
          0                 9           2             4    7     1       0.2013973792E-02       4    7    1         0.1055173640E+00      0.2311769334E+00
          0                10           2             4    7     1       0.9511588470E-03       5    7    1         0.5026222215E-01      0.1108818226E+00
                                                   Max.-Head-Change                         Max.-Flux-Residual
  Residual-Control   Outer-Iter.   Inner-Iter.     Column Row Layer    Maximum-Head-Change  Column Row Layer    Maximum-Flux-Residual          L2-NORM 
          0                11           2             4    7     1       0.4495644036E-03       5    7    1         0.2443570787E-01      0.5320809505E-01
          0                12           2             4    7     1       0.2126479824E-03       5    7    1         0.1187009543E-01      0.2554306943E-01
          0                13           1             5    7     1       0.1022656913E-03       5    7    1         0.5761835921E-02      0.1226663443E-01
          0                14           1             5    7     1       0.4958135565E-04       5    7    1         0.2794938154E-02      0.5892721265E-02

    ------------------------------------------------
       NWT REQUIRED           14 OUTER ITERATIONS 
       AND A TOTAL OF         26 INNER ITERATIONS.
    ------------------------------------------------

 NO OUTPUT CONTROL FOR STRESS PERIOD   31   TIME STEP    9
 
 SOLVING FOR HEAD 
                                                   Max.-Head-Change                         Max.-Flux-Residual
  Residual-Control   Outer-Iter.   Inner-Iter.     Column Row Layer    Maximum-Head-Change  Column Row Layer    Maximum-Flux-Residual          L2-NORM 
          0                 1           2             4    7     1       0.4373468224E+00       4    7    1         0.2314921790E+02      0.4001383992E+02
          0                 2           2             4    7     1       0.2006195782E+00       4    7    1         0.1062547372E+02      0.1763394928E+02
          0                 3           2             5    8     1      -0.4448430468E-01       5    8    1        -0.2500817812E+01      0.3473029654E+01
          0                 4           2             4    7     1       0.8046772662E-01       4    7    1         0.4233690664E+01      0.8504381111E+01
          0                 5           2             4    7     1       0.3712997854E-01       4    7    1         0.1951817270E+01      0.3991991538E+01
          0                 6           2             4    7     1       0.1714877927E-01       4    7    1         0.9006915626E+00      0.1875270671E+01
          0                 7           2             4    7     1       0.7927500012E-02       4    7    1         0.4160224006E+00      0.8814849073E+00
          0                 8           2             4    7     1       0.3667943547E-02       4    7    1         0.1923315653E+00      0.4145852726E+00
          0                 9           2             4    7     1       0.1698560809E-02       4    7    1         0.8899519915E-01      0.1950896306E+00
          0                10           2             4    7     1       0.7872275325E-03       4    7    1         0.4121483267E-01      0.9184416950E-01
                                                   Max.-Head-Change                         Max.-Flux-Residual
  Residual-Control   Outer-Iter.   Inner-Iter.     Column Row Layer    Maximum-Head-Change  Column Row Layer    Maximum-Flux-Residual          L2-NORM 
          0                11           2             4    7     1       0.3651478964E-03       5    7    1         0.1919917066E-01      0.4325578120E-01
          0                12           2             4    7     1       0.1695021989E-03       5    7    1         0.9146449856E-02      0.2037943470E-01
          0                13           1             4    7     1       0.7874238799E-04       5    7    1         0.4354276969E-02      0.9604566241E-02

    ------------------------------------------------
       NWT REQUIRED           13 OUTER ITERATIONS 
       AND A TOTAL OF         25 INNER ITERATIONS.
    ------------------------------------------------

 NO OUTPUT CONTROL FOR STRESS PERIOD   31   TIME STEP   10
 
 SOLVING FOR HEAD 
                                                   Max.-Head-Change                         Max.-Flux-Residual
  Residual-Control   Outer-Iter.   Inner-Iter.     Column Row Layer    Maximum-Head-Change  Column Row Layer    Maximum-Flux-Residual          L2-NORM 
          0                 1           2             4    7     1       0.3726528374E+00       4    7    1         0.1973678720E+02      0.3419493090E+02
          0                 2           2             4    7     1       0.1668366268E+00       4    7    1         0.8841583050E+01      0.1448706568E+02
          0                 3           2             5    8     1      -0.5009114466E-01       5    8    1        -0.2801201682E+01      0.4107454557E+01
          0                 4           2             4    7     1       0.7250012330E-01       4    7    1         0.3812136627E+01      0.7806593445E+01
          0                 5           2             4    7     1       0.3267670803E-01       4    6    1         0.1725629537E+01      0.3651180023E+01
          0                 6           2             4    6     1       0.1478990182E-01       4    6    1         0.8318474693E+00      0.1709930301E+01
          0                 7           2             4    6     1       0.7112842974E-02       4    6    1         0.4004552599E+00      0.8016791972E+00
          0                 8           2             4    6     1       0.3417018726E-02       4    6    1         0.1925499286E+00      0.3762132634E+00
          0                 9           2             4    6     1       0.1639936026E-02       4    6    1         0.9248416113E-01      0.1766942061E+00
          0                10           2             4    6     1       0.7863659032E-03       4    6    1         0.4437865833E-01      0.8304573228E-01
                                                   Max.-Head-Change                         Max.-Flux-Residual
  Residual-Control   Outer-Iter.   Inner-Iter.     Column Row Layer    Maximum-Head-Change  Column Row Layer    Maximum-Flux-Residual          L2-NORM 
          0                11           2             4    6     1       0.3767715024E-03       4    6    1         0.2127676916E-01      0.3905517973E-01
          0                12           2             4    6     1       0.1803930434E-03       4    6    1         0.1019291723E-01      0.1837689072E-01
          0                13           1             4    6     1       0.8631359082E-04       4    6    1         0.4879605243E-02      0.8651050619E-02

    ------------------------------------------------
       NWT REQUIRED           13 OUTER ITERATIONS 
       AND A TOTAL OF         25 INNER ITERATIONS.
    ------------------------------------------------

 NO OUTPUT CONTROL FOR STRESS PERIOD   31   TIME STEP   11
 
 SOLVING FOR HEAD 
                                                   Max.-Head-Change                         Max.-Flux-Residual
  Residual-Control   Outer-Iter.   Inner-Iter.     Column Row Layer    Maximum-Head-Change  Column Row Layer    Maximum-Flux-Residual          L2-NORM 
          0                 1           2             4    7     1       0.3222527146E+00       4    7    1         0.1708603469E+02      0.2951650460E+02
          0                 2           2             4    7     1       0.1418716331E+00       4    7    1         0.7527850269E+01      0.1200304665E+02
          0                 3           2             5    8     1      -0.5407257907E-01       5    8    1        -0.3013182116E+01      0.4911214283E+01
          0                 4           2             4    7     1       0.6332557602E-01       4    7    1         0.3517846157E+01      0.7292854327E+01
          0                 5           2             4    7     1       0.3007030215E-01       4    7    1         0.1671204002E+01      0.3401933266E+01
          0                 6           2             4    7     1       0.1427196531E-01       4    7    1         0.7935296751E+00      0.1588460520E+01
          0                 7           2             4    7     1       0.6770552369E-02       4    7    1         0.3766034358E+00      0.7423056250E+00
          0                 8           2             4    7     1       0.3210451359E-02       4    7    1         0.1786487851E+00      0.3471404569E+00
          0                 9           2             4    7     1       0.1521658953E-02       4    7    1         0.8470674734E-01      0.1624458131E+00
          0                10           2             4    7     1       0.7209173489E-03       4    7    1         0.4014631855E-01      0.7606092255E-01
                                                   Max.-Head-Change                         Max.-Flux-Residual
  Residual-Control   Outer-Iter.   Inner-Iter.     Column Row Layer    Maximum-Head-Change  Column Row Layer    Maximum-Flux-Residual          L2-NORM 
          0                11           2             4    7     1       0.3414115898E-03       4    7    1         0.1901914305E-01      0.3563174811E-01
          0                12           2             4    7     1       0.1616230665E-03       4    7    1         0.9006610585E-02      0.1669979435E-01
          0                13           1             4    7     1       0.7648359632E-04       4    7    1         0.4263484832E-02      0.7830011680E-02

    ------------------------------------------------
       NWT REQUIRED           13 OUTER ITERATIONS 
       AND A TOTAL OF         25 INNER ITERATIONS.
    ------------------------------------------------

 NO OUTPUT CONTROL FOR STRESS PERIOD   31   TIME STEP   12
 
 SOLVING FOR HEAD 
                                                   Max.-Head-Change                         Max.-Flux-Residual
  Residual-Control   Outer-Iter.   Inner-Iter.     Column Row Layer    Maximum-Head-Change  Column Row Layer    Maximum-Flux-Residual          L2-NORM 
          0                 1           2             4    7     1       0.2780405629E+00       4    7    1         0.1475361069E+02      0.2569970514E+02
          0                 2           2             4    7     1       0.1199486809E+00       4    7    1         0.6376064995E+01      0.9932872968E+01
          0                 3           2             5    8     1      -0.5794491939E-01       5    8    1        -0.3221942736E+01      0.5671845642E+01
          0                 4           2             4    7     1       0.5882802127E-01       4    7    1         0.3267233545E+01      0.6873710058E+01
          0                 5           2             4    7     1       0.2750402829E-01       4    7    1         0.1528318232E+01      0.3166154973E+01
          0                 6           2             4    7     1       0.1285205442E-01       4    7    1         0.7144931439E+00      0.1459401234E+01
          0                 7           2             4    7     1       0.6002428016E-02       4    7    1         0.3338468132E+00      0.6730878987E+00
          0                 8           2             4    7     1       0.2802029668E-02       4    7    1         0.1559105426E+00      0.3106008473E+00
          0                 9           2             4    7     1       0.1307441741E-02       4    7    1         0.7277731836E-01      0.1433994718E+00
          0                10           2             4    7     1       0.6098002572E-03       4    7    1         0.3395638177E-01      0.6623514497E-01
                                                   Max.-Head-Change                         Max.-Flux-Residual
  Residual-Control   Outer-Iter.   Inner-Iter.     Column Row Layer    Maximum-Head-Change  Column Row Layer    Maximum-Flux-Residual          L2-NORM 
          0                11           2             4    7     1       0.2843018190E-03       4    7    1         0.1583665008E-01      0.3060616550E-01
          0                12           2             4    7     1       0.1324978915E-03       4    7    1         0.7383000305E-02      0.1414795641E-01
          0                13           1             4    7     1       0.6172846981E-04       4    7    1         0.3440650617E-02      0.6542278364E-02

    ------------------------------------------------
       NWT REQUIRED           13 OUTER ITERATIONS 
       AND A TOTAL OF         25 INNER ITERATIONS.
    ------------------------------------------------

 NO OUTPUT CONTROL FOR STRESS PERIOD   31   TIME STEP   13
 
 SOLVING FOR HEAD 
                                                   Max.-Head-Change                         Max.-Flux-Residual
  Residual-Control   Outer-Iter.   Inner-Iter.     Column Row Layer    Maximum-Head-Change  Column Row Layer    Maximum-Flux-Residual          L2-NORM 
          0                 1           2             4    7     1       0.2417877042E+00       4    7    1         0.1284532250E+02      0.2287008478E+02
          0                 2           2             4    7     1       0.1021618813E+00       4    7    1         0.5434063699E+01      0.8341280962E+01
          0                 3           2             5    8     1      -0.6001108086E-01       5    8    1        -0.3331419152E+01      0.6274264743E+01
          0                 4           2             4    7     1       0.5541771562E-01       4    7    1         0.3075755534E+01      0.6595125340E+01
          0                 5           2             4    7     1       0.2546436800E-01       4    7    1         0.1414133617E+01      0.2978886243E+01
          0                 6           2             4    7     1       0.1169359639E-01       4    7    1         0.6497457539E+00      0.1346729913E+01
          0                 7           2             4    7     1       0.5366751797E-02       4    7    1         0.2983516178E+00      0.6093210919E+00
          0                 8           2             4    7     1       0.2461724259E-02       4    7    1         0.1369187044E+00      0.2758819318E+00
          0                 9           2             4    7     1       0.1128618302E-02       4    7    1         0.6280046711E-01      0.1249929094E+00
          0                10           2             4    7     1       0.5171886050E-03       4    7    1         0.2879015127E-01      0.5666416541E-01
                                                   Max.-Head-Change                         Max.-Flux-Residual
  Residual-Control   Outer-Iter.   Inner-Iter.     Column Row Layer    Maximum-Head-Change  Column Row Layer    Maximum-Flux-Residual          L2-NORM 
          0                11           2             4    7     1       0.2368964258E-03       4    7    1         0.1319229443E-01      0.2570221383E-01
          0                12           2             4    7     1       0.1084647158E-03       4    7    1         0.6042344845E-02      0.1166410058E-01
          0                13           1             4    7     1       0.4964217713E-04       4    7    1         0.2766381780E-02      0.5295807056E-02

    ------------------------------------------------
       NWT REQUIRED           13 OUTER ITERATIONS 
       AND A TOTAL OF         25 INNER ITERATIONS.
    ------------------------------------------------

 NO OUTPUT CONTROL FOR STRESS PERIOD   31   TIME STEP   14
 
 SOLVING FOR HEAD 
                                                   Max.-Head-Change                         Max.-Flux-Residual
  Residual-Control   Outer-Iter.   Inner-Iter.     Column Row Layer    Maximum-Head-Change  Column Row Layer    Maximum-Flux-Residual          L2-NORM 
          0                 1           2             4    7     1       0.2161197675E+00       4    7    1         0.1150646663E+02      0.2057715349E+02
          0                 2           2             4    7     1       0.8901113566E-01       4    7    1         0.4743479171E+01      0.7067865122E+01
          0                 3           2             5    8     1      -0.6169014510E-01       5    8    1        -0.3419326625E+01      0.6770139768E+01
          0                 4           2             4    7     1       0.5301508228E-01       4    7    1         0.2942034488E+01      0.6370037096E+01
          0                 5           2             4    7     1       0.2388526806E-01       4    7    1         0.1325551371E+01      0.2844808867E+01
          0                 6           2             4    7     1       0.1076031580E-01       4    7    1         0.5971958406E+00      0.1271131655E+01
          0                 7           2             4    7     1       0.4847055240E-02       4    7    1         0.2690296220E+00      0.5682056273E+00
          0                 8           2             4    7     1       0.2183152269E-02       4    7    1         0.1211827543E+00      0.2540855116E+00
          0                 9           2             4    7     1       0.9831941560E-03       4    7    1         0.5458007911E-01      0.1136571753E+00
          0                10           2             4    7     1       0.4427318306E-03       4    7    1         0.2457968713E-01      0.5085593277E-01
                                                   Max.-Head-Change                         Max.-Flux-Residual
  Residual-Control   Outer-Iter.   Inner-Iter.     Column Row Layer    Maximum-Head-Change  Column Row Layer    Maximum-Flux-Residual          L2-NORM 
          0                11           2             4    7     1       0.1993361987E-03       4    7    1         0.1106788086E-01      0.2276151303E-01
          0                12           1             4    7     1       0.8973750818E-04       4    7    1         0.4983063011E-02      0.1018975651E-01

    ------------------------------------------------
       NWT REQUIRED           12 OUTER ITERATIONS 
       AND A TOTAL OF         23 INNER ITERATIONS.
    ------------------------------------------------

 NO OUTPUT CONTROL FOR STRESS PERIOD   31   TIME STEP   15
 
 SOLVING FOR HEAD 
                                                   Max.-Head-Change                         Max.-Flux-Residual
  Residual-Control   Outer-Iter.   Inner-Iter.     Column Row Layer    Maximum-Head-Change  Column Row Layer    Maximum-Flux-Residual          L2-NORM 
          0                 1           2             4    7     1       0.1818503696E+00       4    7    1         0.9668776418E+01      0.1859359037E+02
          0                 2           2             4    7     1       0.7496030549E-01       4    7    1         0.3992655296E+01      0.6022708858E+01
          0                 3           2             5    8     1      -0.6329293180E-01       5    8    1        -0.3505270347E+01      0.7170406477E+01
          0                 4           2             4    7     1       0.5068947348E-01       4    7    1         0.2810265369E+01      0.6216282314E+01
          0                 5           2             4    7     1       0.2284676905E-01       4    7    1         0.1267514856E+01      0.2745683701E+01
          0                 6           2             4    7     1       0.1029005104E-01       4    7    1         0.5712471346E+00      0.1214200219E+01
          0                 7           2             4    7     1       0.4631457813E-02       4    7    1         0.2572658830E+00      0.5375022877E+00
          0                 8           2             4    7     1       0.2083270573E-02       4    7    1         0.1157842376E+00      0.2381678245E+00
          0                 9           2             4    7     1       0.9365273543E-03       4    7    1         0.5207701203E-01      0.1056241756E+00
          0                10           2             4    7     1       0.4207846551E-03       4    7    1         0.2340943983E-01      0.4688011383E-01
                                                   Max.-Head-Change                         Max.-Flux-Residual
  Residual-Control   Outer-Iter.   Inner-Iter.     Column Row Layer    Maximum-Head-Change  Column Row Layer    Maximum-Flux-Residual          L2-NORM 
          0                11           2             4    7     1       0.1889646814E-03       4    6    1         0.1058882356E-01      0.2082233053E-01
          0                12           1             4    6     1       0.8527496878E-04       4    6    1         0.4797902140E-02      0.9254610238E-02

    ------------------------------------------------
       NWT REQUIRED           12 OUTER ITERATIONS 
       AND A TOTAL OF         23 INNER ITERATIONS.
    ------------------------------------------------

 NO OUTPUT CONTROL FOR STRESS PERIOD   31   TIME STEP   16
 
 SOLVING FOR HEAD 
                                                   Max.-Head-Change                         Max.-Flux-Residual
  Residual-Control   Outer-Iter.   Inner-Iter.     Column Row Layer    Maximum-Head-Change  Column Row Layer    Maximum-Flux-Residual          L2-NORM 
          0                 1           2             4    7     1       0.1638983166E+00       4    7    1         0.8739996767E+01      0.1690422126E+02
          0                 2           2             4    7     1       0.6559515505E-01       4    7    1         0.3503141270E+01      0.5037025949E+01
          0                 3           2             5    8     1      -0.6486328677E-01       5    8    1        -0.3588659617E+01      0.7562986819E+01
          0                 4           2             4    7     1       0.4922863103E-01       4    7    1         0.2729543293E+01      0.6064835721E+01
          0                 5           2             4    7     1       0.2169750216E-01       4    7    1         0.1203101974E+01      0.2645652812E+01
          0                 6           2             4    7     1       0.9562298630E-02       4    7    1         0.5302533320E+00      0.1154880619E+01
          0                 7           2             4    7     1       0.4213751610E-02       4    7    1         0.2336812160E+00      0.5044002267E+00
          0                 8           2             4    7     1       0.1856626112E-02       4    7    1         0.1029716296E+00      0.2204064011E+00
          0                 9           2             4    7     1       0.8179463978E-03       4    7    1         0.4536905801E-01      0.9635238787E-01
          0                10           2             4    7     1       0.3603023178E-03       4    7    1         0.1998694600E-01      0.4213773069E-01
                                                   Max.-Head-Change                         Max.-Flux-Residual
  Residual-Control   Outer-Iter.   Inner-Iter.     Column Row Layer    Maximum-Head-Change  Column Row Layer    Maximum-Flux-Residual          L2-NORM 
          0                11           2             4    7     1       0.1586897553E-03       4    6    1         0.8817914035E-02      0.1843458275E-01
          0                12           1             4    7     1       0.6988256989E-04       4    6    1         0.3916311128E-02      0.8067407268E-02

    ------------------------------------------------
       NWT REQUIRED           12 OUTER ITERATIONS 
       AND A TOTAL OF         23 INNER ITERATIONS.
    ------------------------------------------------

 NO OUTPUT CONTROL FOR STRESS PERIOD   31   TIME STEP   17
 
 SOLVING FOR HEAD 
                                                   Max.-Head-Change                         Max.-Flux-Residual
  Residual-Control   Outer-Iter.   Inner-Iter.     Column Row Layer    Maximum-Head-Change  Column Row Layer    Maximum-Flux-Residual          L2-NORM 
          0                 1           2             4    7     1       0.1386429684E+00       4    7    1         0.7370291732E+01      0.1582161463E+02
          0                 2           2             4    7     1       0.5565686276E-01       4    7    1         0.2965644019E+01      0.4483363324E+01
          0                 3           2             5    8     1      -0.6439830074E-01       5    8    1        -0.3560620337E+01      0.7740993381E+01
          0                 4           2             4    7     1       0.4770969726E-01       4    7    1         0.2642511109E+01      0.5993800785E+01
          0                 5           2             4    7     1       0.2104437150E-01       4    7    1         0.1166096089E+01      0.2603329643E+01
          0                 6           2             4    7     1       0.9278118757E-02       4    7    1         0.5143242248E+00      0.1131653728E+01
          0                 7           2             4    7     1       0.4088742968E-02       4    7    1         0.2267434831E+00      0.4922677655E+00
          0                 8           2             4    7     1       0.1801094271E-02       4    7    1         0.9991699955E-01      0.2142750094E+00
          0                 9           2             4    7     1       0.7930676272E-03       4    6    1         0.4414430679E-01      0.9332613485E-01
          0                10           2             4    6     1       0.3491962561E-03       4    6    1         0.1962452820E-01      0.4067030464E-01
                                                   Max.-Head-Change                         Max.-Flux-Residual
  Residual-Control   Outer-Iter.   Inner-Iter.     Column Row Layer    Maximum-Head-Change  Column Row Layer    Maximum-Flux-Residual          L2-NORM 
          0                11           2             4    6     1       0.1550961329E-03       4    6    1         0.8719839959E-02      0.1773274625E-01
          0                12           1             4    6     1       0.6885543475E-04       4    6    1         0.3872698928E-02      0.7735391265E-02

    ------------------------------------------------
       NWT REQUIRED           12 OUTER ITERATIONS 
       AND A TOTAL OF         23 INNER ITERATIONS.
    ------------------------------------------------

 NO OUTPUT CONTROL FOR STRESS PERIOD   31   TIME STEP   18
 
 SOLVING FOR HEAD 
                                                   Max.-Head-Change                         Max.-Flux-Residual
  Residual-Control   Outer-Iter.   Inner-Iter.     Column Row Layer    Maximum-Head-Change  Column Row Layer    Maximum-Flux-Residual          L2-NORM 
          0                 1           2             4    7     1       0.1318263371E+00       4    7    1         0.7054013050E+01      0.1462804567E+02
          0                 2           2             4    7     1       0.5115815638E-01       4    7    1         0.2743175202E+01      0.3745959237E+01
          0                 3           2             5    8     1      -0.6693745804E-01       5    8    1        -0.3698928559E+01      0.8096760561E+01
          0                 4           2             4    7     1       0.4721101550E-01       4    7    1         0.2616630130E+01      0.5898565517E+01
          0                 5           2             4    7     1       0.2029185021E-01       4    7    1         0.1124675654E+01      0.2517033427E+01
          0                 6           2             4    7     1       0.8721238069E-02       4    7    1         0.4833876831E+00      0.1074911447E+01
          0                 7           2             4    7     1       0.3748082478E-02       4    7    1         0.2077500591E+00      0.4593396843E+00
          0                 8           2             4    7     1       0.1610689865E-02       4    7    1         0.8928135910E-01      0.1964013783E+00
          0                 9           2             4    7     1       0.6921250962E-03       4    6    1         0.3840645296E-01      0.8401921335E-01
          0                10           2             4    6     1       0.2978902311E-03       4    6    1         0.1671406120E-01      0.3595949066E-01
                                                   Max.-Head-Change                         Max.-Flux-Residual
  Residual-Control   Outer-Iter.   Inner-Iter.     Column Row Layer    Maximum-Head-Change  Column Row Layer    Maximum-Flux-Residual          L2-NORM 
          0                11           2             4    6     1       0.1295521782E-03       4    6    1         0.7271115424E-02      0.1539675753E-01
          0                12           1             4    6     1       0.5632302305E-04       4    6    1         0.3162039012E-02      0.6594899105E-02

    ------------------------------------------------
       NWT REQUIRED           12 OUTER ITERATIONS 
       AND A TOTAL OF         23 INNER ITERATIONS.
    ------------------------------------------------

 NO OUTPUT CONTROL FOR STRESS PERIOD   31   TIME STEP   19
 
 SOLVING FOR HEAD 
                                                   Max.-Head-Change                         Max.-Flux-Residual
  Residual-Control   Outer-Iter.   Inner-Iter.     Column Row Layer    Maximum-Head-Change  Column Row Layer    Maximum-Flux-Residual          L2-NORM 
          0                 1           2             4    7     1       0.9970431859E-01       4    7    1         0.5302317860E+01      0.1350931579E+02
          0                 2           2             4    7     1       0.3881299847E-01       4    7    1         0.2070952495E+01      0.3139981812E+01
          0                 3           2             5    8     1      -0.6696017677E-01       5    8    1        -0.3699771905E+01      0.8284123262E+01
          0                 4           2             4    7     1       0.4546932527E-01       4    7    1         0.2516372847E+01      0.5828448213E+01
          0                 5           2             4    7     1       0.1957320071E-01       4    7    1         0.1083337365E+01      0.2476659454E+01
          0                 6           2             4    7     1       0.8424404143E-02       4    7    1         0.4663299137E+00      0.1053278987E+01
          0                 7           2             4    7     1       0.3625313770E-02       4    7    1         0.2007039101E+00      0.4482500565E+00
          0                 8           2             4    7     1       0.1559830647E-02       4    6    1         0.8698611595E-01      0.1908835485E+00
          0                 9           2             4    6     1       0.6730616151E-03       4    6    1         0.3781188240E-01      0.8133202124E-01
          0                10           2             4    6     1       0.2922674830E-03       4    6    1         0.1642698899E-01      0.3467178229E-01
                                                   Max.-Head-Change                         Max.-Flux-Residual
  Residual-Control   Outer-Iter.   Inner-Iter.     Column Row Layer    Maximum-Head-Change  Column Row Layer    Maximum-Flux-Residual          L2-NORM 
          0                11           2             4    6     1       0.1268486518E-03       4    6    1         0.7132707752E-02      0.1478738722E-01
          0                12           1             4    6     1       0.5502807791E-04       4    6    1         0.3095506773E-02      0.6309410741E-02

    ------------------------------------------------
       NWT REQUIRED           12 OUTER ITERATIONS 
       AND A TOTAL OF         23 INNER ITERATIONS.
    ------------------------------------------------

 NO OUTPUT CONTROL FOR STRESS PERIOD   31   TIME STEP   20
 
 SOLVING FOR HEAD 
                                                   Max.-Head-Change                         Max.-Flux-Residual
  Residual-Control   Outer-Iter.   Inner-Iter.     Column Row Layer    Maximum-Head-Change  Column Row Layer    Maximum-Flux-Residual          L2-NORM 
          0                 1           2             4    7     1       0.9543957353E-01       4    7    1         0.5075520952E+01      0.1305584123E+02
          0                 2           2             4    7     1       0.3712777422E-01       4    7    1         0.1982364253E+01      0.2942875885E+01
          0                 3           2             5    8     1      -0.6655792191E-01       5    8    1        -0.3675763748E+01      0.8352942350E+01
          0                 4           2             4    7     1       0.4520372744E-01       4    7    1         0.2500911073E+01      0.5829635878E+01
          0                 5           2             4    7     1       0.1945123543E-01       4    7    1         0.1077040624E+01      0.2454175497E+01
          0                 6           2             4    7     1       0.8362542707E-02       4    7    1         0.4634055198E+00      0.1033859499E+01
          0                 7           2             4    7     1       0.3592296430E-02       4    7    1         0.1992096509E+00      0.4357679144E+00
          0                 8           2             4    7     1       0.1541953151E-02       4    7    1         0.8556658005E-01      0.1837664351E+00
          0                 9           2             4    7     1       0.6613878214E-03       4    7    1         0.3672527222E-01      0.7753084118E-01
          0                10           2             4    7     1       0.2834956882E-03       4    7    1         0.1575119901E-01      0.3272366531E-01
                                                   Max.-Head-Change                         Max.-Flux-Residual
  Residual-Control   Outer-Iter.   Inner-Iter.     Column Row Layer    Maximum-Head-Change  Column Row Layer    Maximum-Flux-Residual          L2-NORM 
          0                11           2             4    7     1       0.1214394523E-03       4    7    1         0.6751015255E-02      0.1381693663E-01
          0                12           1             4    7     1       0.5198915481E-04       4    7    1         0.2891672807E-02      0.5835910257E-02

    ------------------------------------------------
       NWT REQUIRED           12 OUTER ITERATIONS 
       AND A TOTAL OF         23 INNER ITERATIONS.
    ------------------------------------------------

 NO OUTPUT CONTROL FOR STRESS PERIOD   31   TIME STEP   21
 
 SOLVING FOR HEAD 
                                                   Max.-Head-Change                         Max.-Flux-Residual
  Residual-Control   Outer-Iter.   Inner-Iter.     Column Row Layer    Maximum-Head-Change  Column Row Layer    Maximum-Flux-Residual          L2-NORM 
          0                 1           2             4    7     1       0.9050525399E-01       4    7    1         0.4853067021E+01      0.1222702239E+02
          0                 2           2             4    7     1       0.3440536019E-01       4    7    1         0.1851713883E+01      0.2451767660E+01
          0                 3           2             5    8     1      -0.6731547687E-01       5    8    1        -0.3714322793E+01      0.8584816797E+01
          0                 4           2             4    7     1       0.4522237806E-01       4    7    1         0.2504057761E+01      0.5786048533E+01
          0                 5           2             4    7     1       0.1891075897E-01       4    7    1         0.1047138284E+01      0.2399166767E+01
          0                 6           2             4    7     1       0.7907599866E-02       4    7    1         0.4378743334E+00      0.9958013715E+00
          0                 7           2             4    7     1       0.3306409816E-02       4    7    1         0.1830940209E+00      0.4136611098E+00
          0                 8           2             4    7     1       0.1382426780E-02       4    6    1         0.7673665503E-01      0.1719645466E+00
          0                 9           2             4    6     1       0.5805968323E-03       4    6    1         0.3256489117E-01      0.7153549847E-01
          0                10           2             4    6     1       0.2461990774E-03       4    6    1         0.1381379160E-01      0.2977577352E-01
                                                   Max.-Head-Change                         Max.-Flux-Residual
  Residual-Control   Outer-Iter.   Inner-Iter.     Column Row Layer    Maximum-Head-Change  Column Row Layer    Maximum-Flux-Residual          L2-NORM 
          0                11           2             4    6     1       0.1043585269E-03       4    6    1         0.5857331542E-02      0.1240043960E-01
          0                12           1             4    6     1       0.4421871567E-04       4    6    1         0.2482658808E-02      0.5166788059E-02

    ------------------------------------------------
       NWT REQUIRED           12 OUTER ITERATIONS 
       AND A TOTAL OF         23 INNER ITERATIONS.
    ------------------------------------------------

 NO OUTPUT CONTROL FOR STRESS PERIOD   31   TIME STEP   22
 
 SOLVING FOR HEAD 
                                                   Max.-Head-Change                         Max.-Flux-Residual
  Residual-Control   Outer-Iter.   Inner-Iter.     Column Row Layer    Maximum-Head-Change  Column Row Layer    Maximum-Flux-Residual          L2-NORM 
          0                 1           2             4    5     1       0.8801909247E-01       4    5    1         0.4705687944E+01      0.1145320971E+02
          0                 2           2             4    7     1       0.2337237684E-01       4    7    1         0.1250009944E+01      0.1995305817E+01
          0                 3           2             5    8     1      -0.7060530303E-01       5    8    1        -0.3791414333E+01      0.8741525455E+01
          0                 4           2             4    7     1       0.4375156578E-01       4    7    1         0.2419498372E+01      0.5764620244E+01
          0                 5           2             4    7     1       0.1832034434E-01       4    7    1         0.1013209078E+01      0.2362830773E+01
          0                 6           2             4    7     1       0.7670258631E-02       4    7    1         0.4242540665E+00      0.9710692726E+00
          0                 7           2             4    7     1       0.3210771298E-02       4    6    1         0.1799742415E+00      0.3999390099E+00
          0                 8           2             4    6     1       0.1358760792E-02       4    6    1         0.7630062690E-01      0.1650074047E+00
          0                 9           2             4    6     1       0.5753176498E-03       4    6    1         0.3232527062E-01      0.6817837169E-01
          0                10           2             4    6     1       0.2434473921E-03       4    6    1         0.1368587418E-01      0.2820430200E-01
                                                   Max.-Head-Change                         Max.-Flux-Residual
  Residual-Control   Outer-Iter.   Inner-Iter.     Column Row Layer    Maximum-Head-Change  Column Row Layer    Maximum-Flux-Residual          L2-NORM 
          0                11           1             4    6     1       0.1029561262E-03       4    6    1         0.5790781668E-02      0.1167944238E-01
          0                12           1             4    6     1       0.4351728975E-04       4    6    1         0.2448789880E-02      0.4840566436E-02

    ------------------------------------------------
       NWT REQUIRED           12 OUTER ITERATIONS 
       AND A TOTAL OF         22 INNER ITERATIONS.
    ------------------------------------------------

 NO OUTPUT CONTROL FOR STRESS PERIOD   31   TIME STEP   23
 
 SOLVING FOR HEAD 
                                                   Max.-Head-Change                         Max.-Flux-Residual
  Residual-Control   Outer-Iter.   Inner-Iter.     Column Row Layer    Maximum-Head-Change  Column Row Layer    Maximum-Flux-Residual          L2-NORM 
          0                 1           2             4    5     1       0.8603139769E-01       4    5    1         0.4598660751E+01      0.1114563287E+02
          0                 2           2             4    7     1       0.2241158887E-01       4    7    1         0.1197578534E+01      0.1937136146E+01
          0                 3           2             5    8     1      -0.7016921152E-01       5    8    1        -0.3767358646E+01      0.8759427356E+01
          0                 4           2             4    7     1       0.4362343217E-01       4    7    1         0.2412148040E+01      0.5757049806E+01
          0                 5           2             4    7     1       0.1826872163E-01       4    7    1         0.1010252581E+01      0.2359491645E+01
          0                 6           2             4    7     1       0.7649423070E-02       4    6    1         0.4236272036E+00      0.9696106805E+00
          0                 7           2             4    7     1       0.3202346434E-02       4    6    1         0.1797125896E+00      0.3993093889E+00
          0                 8           2             4    6     1       0.1356534503E-02       4    6    1         0.7618195993E-01      0.1647379279E+00
          0                 9           2             4    6     1       0.5743272848E-03       4    6    1         0.3227204669E-01      0.6806375146E-01
          0                10           2             4    6     1       0.2430101260E-03       4    6    1         0.1366221584E-01      0.2815577071E-01
                                                   Max.-Head-Change                         Max.-Flux-Residual
  Residual-Control   Outer-Iter.   Inner-Iter.     Column Row Layer    Maximum-Head-Change  Column Row Layer    Maximum-Flux-Residual          L2-NORM 
          0                11           1             4    6     1       0.1027642694E-03       4    6    1         0.5780342765E-02      0.1165896272E-01
          0                12           1             4    6     1       0.4343355423E-04       4    6    1         0.2444212181E-02      0.4831945868E-02

    ------------------------------------------------
       NWT REQUIRED           12 OUTER ITERATIONS 
       AND A TOTAL OF         22 INNER ITERATIONS.
    ------------------------------------------------

 NO OUTPUT CONTROL FOR STRESS PERIOD   31   TIME STEP   24
 
 SOLVING FOR HEAD 
                                                   Max.-Head-Change                         Max.-Flux-Residual
  Residual-Control   Outer-Iter.   Inner-Iter.     Column Row Layer    Maximum-Head-Change  Column Row Layer    Maximum-Flux-Residual          L2-NORM 
          0                 1           2             4    5     1       0.8387370598E-01       4    5    1         0.4494918383E+01      0.1066701659E+02
          0                 2           2             4    7     1       0.2121494341E-01       4    7    1         0.1140154022E+01      0.1707701777E+01
          0                 3           2             5    8     1      -0.6983882535E-01       5    8    1        -0.3748138481E+01      0.8837818951E+01
          0                 4           2             5    8     1       0.4349001745E-01       4    7    1         0.2401299641E+01      0.5760776073E+01
          0                 5           2             4    7     1       0.1818012098E-01       4    7    1         0.1005950681E+01      0.2336658293E+01
          0                 6           2             4    7     1       0.7601775703E-02       4    7    1         0.4209865028E+00      0.9498932961E+00
          0                 7           2             4    7     1       0.3175651341E-02       4    7    1         0.1760109984E+00      0.3868525577E+00
          0                 8           2             4    7     1       0.1325471906E-02       4    7    1         0.7352120773E-01      0.1577919456E+00
          0                 9           2             4    7     1       0.5527747495E-03       4    7    1         0.3068365832E-01      0.6444475743E-01
          0                10           2             4    7     1       0.2303484140E-03       4    7    1         0.1279508932E-01      0.2634903781E-01
          0                11           1             4    7     1       0.9591804487E-04       4    7    1         0.5331391194E-02      0.1078308357E-01

    ------------------------------------------------
       NWT REQUIRED           11 OUTER ITERATIONS 
       AND A TOTAL OF         21 INNER ITERATIONS.
    ------------------------------------------------

 NO OUTPUT CONTROL FOR STRESS PERIOD   31   TIME STEP   25
 
 SOLVING FOR HEAD 
                                                   Max.-Head-Change                         Max.-Flux-Residual
  Residual-Control   Outer-Iter.   Inner-Iter.     Column Row Layer    Maximum-Head-Change  Column Row Layer    Maximum-Flux-Residual          L2-NORM 
          0                 1           2             4    5     1       0.8151868835E-01       4    5    1         0.4372656053E+01      0.1024077886E+02
          0                 2           2             4    7     1       0.1974751174E-01       4    7    1         0.1070465925E+01      0.1512801227E+01
          0                 3           2             5    7     1      -0.6820652609E-01       5    8    1        -0.3738255351E+01      0.8950497818E+01
          0                 4           2             4    7     1       0.4328166686E-01       4    7    1         0.2393087968E+01      0.5712003696E+01
          0                 5           2             4    7     1       0.1810480009E-01       4    7    1         0.1002344490E+01      0.2321255999E+01
          0                 6           2             4    7     1       0.7436685575E-02       4    7    1         0.4119340973E+00      0.9408474461E+00
          0                 7           2             4    7     1       0.3011923643E-02       4    7    1         0.1668258684E+00      0.3804588466E+00
          0                 8           2             4    7     1       0.1219913389E-02       4    7    1         0.6756476180E-01      0.1538993548E+00
          0                 9           2             4    6     1       0.4959525531E-03       4    6    1         0.2781236508E-01      0.6227308008E-01
          0                10           2             4    6     1       0.2044200480E-03       4    6    1         0.1146824305E-01      0.2520533089E-01
          0                11           1             4    6     1       0.8421940270E-04       4    6    1         0.4726637309E-02      0.1020486411E-01

    ------------------------------------------------
       NWT REQUIRED           11 OUTER ITERATIONS 
       AND A TOTAL OF         21 INNER ITERATIONS.
    ------------------------------------------------

 NO OUTPUT CONTROL FOR STRESS PERIOD   31   TIME STEP   26
 
 SOLVING FOR HEAD 
                                                   Max.-Head-Change                         Max.-Flux-Residual
  Residual-Control   Outer-Iter.   Inner-Iter.     Column Row Layer    Maximum-Head-Change  Column Row Layer    Maximum-Flux-Residual          L2-NORM 
          0                 1           2             4    5     1       0.7920327878E-01       4    5    1         0.4246589067E+01      0.9708285956E+01
          0                 2           2             4    7     1       0.1046548336E-01       4    7    1         0.5634743063E+00      0.1200687710E+01
          0                 3           2             5    8     1      -0.7078519162E-01       5    8    1        -0.3797080295E+01      0.9051621392E+01
          0                 4           2             5    8     1       0.4412231856E-01       5    8    1         0.2434296989E+01      0.5755962408E+01
          0                 5           2             4    7     1       0.1735239944E-01       4    7    1         0.9589847431E+00      0.2282801222E+01
          0                 6           2             4    6     1       0.7044711910E-02       4    6    1         0.3950682591E+00      0.9082074194E+00
          0                 7           2             4    6     1       0.2902787851E-02       4    6    1         0.1629108875E+00      0.3622446742E+00
          0                 8           2             4    6     1       0.1195151113E-02       4    6    1         0.6712116842E-01      0.1447850739E+00
          0                 9           2             4    6     1       0.4917104841E-03       4    6    1         0.2763290746E-01      0.5796817363E-01
          0                10           2             4    6     1       0.2021605722E-03       4    6    1         0.1136775797E-01      0.2324178545E-01
          0                11           1             4    6     1       0.8306220393E-04       4    6    1         0.4673317111E-02      0.9329512310E-02

    ------------------------------------------------
       NWT REQUIRED           11 OUTER ITERATIONS 
       AND A TOTAL OF         21 INNER ITERATIONS.
    ------------------------------------------------

 NO OUTPUT CONTROL FOR STRESS PERIOD   31   TIME STEP   27
 
 SOLVING FOR HEAD 
                                                   Max.-Head-Change                         Max.-Flux-Residual
  Residual-Control   Outer-Iter.   Inner-Iter.     Column Row Layer    Maximum-Head-Change  Column Row Layer    Maximum-Flux-Residual          L2-NORM 
          0                 1           2             4    5     1       0.7698340280E-01       4    5    1         0.4126366923E+01      0.9486428739E+01
          0                 2           2             4    7     1       0.1003007483E-01       4    7    1         0.5393370353E+00      0.1201547397E+01
          0                 3           2             5    8     1      -0.7128147693E-01       5    8    1        -0.3824487948E+01      0.9101305608E+01
          0                 4           2             5    8     1       0.4396158685E-01       5    8    1         0.2425161436E+01      0.5764892567E+01
          0                 5           2             4    7     1       0.1733169297E-01       4    7    1         0.9577865044E+00      0.2270291601E+01
          0                 6           2             4    6     1       0.7043390992E-02       4    6    1         0.3953786021E+00      0.8975727575E+00
          0                 7           2             4    6     1       0.2900438177E-02       4    6    1         0.1630084466E+00      0.3560066817E+00
          0                 8           2             4    6     1       0.1192886338E-02       4    6    1         0.6711200996E-01      0.1415863932E+00
          0                 9           2             4    6     1       0.4900599001E-03       4    6    1         0.2759646678E-01      0.5643720188E-01
          0                10           2             4    6     1       0.2011250715E-03       4    6    1         0.1133520889E-01      0.2253859862E-01
          0                11           1             4    6     1       0.8246993611E-04       4    6    1         0.4651355687E-02      0.9015094986E-02

    ------------------------------------------------
       NWT REQUIRED           11 OUTER ITERATIONS 
       AND A TOTAL OF         21 INNER ITERATIONS.
    ------------------------------------------------

 NO OUTPUT CONTROL FOR STRESS PERIOD   31   TIME STEP   28
 
 SOLVING FOR HEAD 
                                                   Max.-Head-Change                         Max.-Flux-Residual
  Residual-Control   Outer-Iter.   Inner-Iter.     Column Row Layer    Maximum-Head-Change  Column Row Layer    Maximum-Flux-Residual          L2-NORM 
          0                 1           2             4    5     1       0.7483702681E-01       4    5    1         0.4010902842E+01      0.9185915214E+01
          0                 2           2             4    7     1       0.9630357658E-02       4    7    1         0.5174422519E+00      0.1147704267E+01
          0                 3           2             5    8     1      -0.7094185999E-01       5    8    1        -0.3805864152E+01      0.9088044479E+01
          0                 4           2             5    8     1       0.4407338146E-01       5    8    1         0.2431421250E+01      0.5788542287E+01
          0                 5           2             4    7     1       0.1731459526E-01       4    7    1         0.9569669301E+00      0.2267218184E+01
          0                 6           2             4    7     1       0.7025638233E-02       4    7    1         0.3885116984E+00      0.8908585782E+00
          0                 7           2             4    7     1       0.2848945499E-02       4    7    1         0.1576316756E+00      0.3509587537E+00
          0                 8           2             4    7     1       0.1154523940E-02       4    7    1         0.6391560675E-01      0.1385621511E+00
          0                 9           2             4    7     1       0.4675642473E-03       4    7    1         0.2589943797E-01      0.5480380492E-01
          0                10           2             4    7     1       0.1892348399E-03       4    7    1         0.1048801299E-01      0.2170787595E-01
          0                11           1             4    7     1       0.7653963832E-04       4    7    1         0.4244413676E-02      0.8608962041E-02

    ------------------------------------------------
       NWT REQUIRED           11 OUTER ITERATIONS 
       AND A TOTAL OF         21 INNER ITERATIONS.
    ------------------------------------------------

 NO OUTPUT CONTROL FOR STRESS PERIOD   31   TIME STEP   29
 
 SOLVING FOR HEAD 
                                                   Max.-Head-Change                         Max.-Flux-Residual
  Residual-Control   Outer-Iter.   Inner-Iter.     Column Row Layer    Maximum-Head-Change  Column Row Layer    Maximum-Flux-Residual          L2-NORM 
          0                 1           2             4    5     1       0.7246908408E-01       4    5    1         0.3898608188E+01      0.8858898087E+01
          0                 2           2             4    7     1       0.9000495271E-02       4    7    1         0.4892920384E+00      0.1033574891E+01
          0                 3           2             4    6     1      -0.7071576033E-01       5    8    1        -0.3789905623E+01      0.9142513829E+01
          0                 4           2             5    8     1       0.4417591728E-01       5    8    1         0.2436638251E+01      0.5814684574E+01
          0                 5           2             4    7     1       0.1727708959E-01       4    7    1         0.9555261824E+00      0.2247733697E+01
          0                 6           2             4    7     1       0.7005345935E-02       4    7    1         0.3880352865E+00      0.8713512861E+00
          0                 7           2             4    7     1       0.2835752733E-02       4    7    1         0.1572998766E+00      0.3386072168E+00
          0                 8           2             4    7     1       0.1146147566E-02       4    7    1         0.6366085521E-01      0.1318657384E+00
          0                 9           2             4    7     1       0.4625887369E-03       4    7    1         0.2572506386E-01      0.5145028992E-01
          0                10           2             4    7     1       0.1864561145E-03       4    7    1         0.1038074973E-01      0.2010770885E-01
          0                11           1             4    7     1       0.7506304762E-04       4    7    1         0.4183438999E-02      0.7869842661E-02

    ------------------------------------------------
       NWT REQUIRED           11 OUTER ITERATIONS 
       AND A TOTAL OF         21 INNER ITERATIONS.
    ------------------------------------------------

 NO OUTPUT CONTROL FOR STRESS PERIOD   31   TIME STEP   30



 STREAM LISTING     PERIOD     31   STEP       30

 LAYER ROW COL. STREAM  RCH.  FLOW INTO     FLOW TO   FLOW OUT OF   OVRLND.     DIRECT     STREAM       STREAM     STREAM     STREAM   STREAMBED  STREAMBED
                SEG.NO.  NO.  STRM. RCH.    AQUIFER    STRM. RCH.    RUNOFF     PRECIP       ET          HEAD       DEPTH      WIDTH   CONDCTNC.   GRADIENT

   1    1    1     1     1    6.2248E+01  3.7978E-01   6.1868E+01  0.000E+00  0.000E+00  0.000E+00  1.09460E+03  1.553E+00  1.854E+01  8.342E-02  1.518E+00
   1    2    2     1     2    6.1868E+01  5.8816E-01   6.1280E+01  0.000E+00  0.000E+00  0.000E+00  1.08961E+03  1.547E+00  1.848E+01  1.294E-01  1.516E+00
   1    3    3     1     3    6.1280E+01  5.0162E-01   6.0779E+01  0.000E+00  0.000E+00  0.000E+00  1.08396E+03  1.540E+00  1.841E+01  1.105E-01  1.513E+00
   1    3    4     1     4    6.0779E+01  4.6193E-01   6.0317E+01  0.000E+00  0.000E+00  0.000E+00  1.07894E+03  1.534E+00  1.836E+01  1.019E-01  1.511E+00
   1    4    5     2     1    5.8317E+01  3.9026E-01   5.7926E+01  0.000E+00  0.000E+00  0.000E+00  1.07394E+03  2.003E+00  1.200E+01  7.800E-02  1.668E+00
   1    5    6     2     2    5.7926E+01  2.9977E-01   5.7627E+01  0.000E+00  0.000E+00  0.000E+00  1.06851E+03  1.996E+00  1.200E+01  6.000E-02  1.665E+00
   1    6    6     2     3    5.7627E+01  2.9940E-01   5.7327E+01  0.000E+00  0.000E+00  0.000E+00  1.06378E+03  1.990E+00  1.200E+01  6.000E-02  1.663E+00
   1    7    6     2     4    5.7327E+01  2.9902E-01   5.7028E+01  0.000E+00  0.000E+00  0.000E+00  1.05906E+03  1.984E+00  1.200E+01  6.000E-02  1.661E+00
   1    8    6     2     5    5.7028E+01  2.9865E-01   5.6730E+01  0.000E+00  0.000E+00  0.000E+00  1.05434E+03  1.977E+00  1.200E+01  6.000E-02  1.659E+00
   1    3    5     3     1    2.0000E+00  2.8252E-01   1.7175E+00  0.000E+00  0.000E+00  0.000E+00  1.07555E+03  1.909E+00  9.636E+00  7.227E-02  1.955E+00
   1    3    6     3     2    1.7175E+00  2.4905E-01   1.4684E+00  0.000E+00  0.000E+00  0.000E+00  1.07264E+03  1.727E+00  8.909E+00  6.682E-02  1.864E+00
   1    3    7     3     3    1.4684E+00  1.9718E-01   1.2712E+00  0.000E+00  0.000E+00  0.000E+00  1.06987E+03  1.555E+00  8.218E+00  5.547E-02  1.777E+00
   1    4    8     3     4    1.2712E+00  2.2567E-01   1.0456E+00  0.000E+00  0.000E+00  0.000E+00  1.06682E+03  1.364E+00  7.455E+00  6.709E-02  1.682E+00
   1    5    8     3     5    1.0456E+00  1.5790E-01   8.8768E-01  0.000E+00  0.000E+00  0.000E+00  1.06362E+03  1.164E+00  6.655E+00  4.991E-02  1.582E+00
   1    6    8     3     6    8.8768E-01  5.5980E-02   8.3170E-01  0.000E+00  0.000E+00  0.000E+00  1.06158E+03  1.036E+00  6.145E+00  1.844E-02  1.518E+00
   1    5   10     4     1    1.0000E+01  9.0919E-02   9.9091E+00  0.000E+00  0.000E+00  0.000E+00  1.07836E+03  6.368E-01  1.000E+01  2.500E-02  1.212E+00
   1    5    9     4     2    9.9091E+00  1.8158E-01   9.7275E+00  0.000E+00  0.000E+00  0.000E+00  1.07154E+03  6.315E-01  1.000E+01  5.000E-02  1.211E+00
   1    6    8     4     3    9.7275E+00  1.2689E-01   9.6006E+00  0.000E+00  0.000E+00  0.000E+00  1.06381E+03  6.256E-01  1.000E+01  3.500E-02  1.209E+00
   1    6    8     5     1    1.0432E+01  2.2686E-01   1.0205E+01  0.000E+00  0.000E+00  0.000E+00  1.05868E+03  6.790E-01  1.542E+01  6.166E-02  1.226E+00
   1    7    7     5     2    1.0205E+01  2.7894E-01   9.9265E+00  0.000E+00  0.000E+00  0.000E+00  1.05417E+03  6.732E-01  1.519E+01  7.594E-02  1.224E+00
   1    8    7     5     3    9.9265E+00  1.9221E-01   9.7343E+00  0.000E+00  0.000E+00  0.000E+00  1.04992E+03  6.676E-01  1.497E+01  5.241E-02  1.223E+00
   1    8    6     5     4    9.7343E+00  1.3577E-01   9.5985E+00  0.000E+00  0.000E+00  0.000E+00  1.04691E+03  6.637E-01  1.482E+01  3.706E-02  1.221E+00
   1    9    6     6     1    4.3858E+01  2.8245E-01   4.3576E+01  0.000E+00  0.000E+00  0.000E+00  1.04443E+03  1.707E+00  1.200E+01  6.000E-02  1.569E+00
   1   10    7     6     2    4.3576E+01  2.8205E-01   4.3294E+01  0.000E+00  0.000E+00  0.000E+00  1.03988E+03  1.701E+00  1.200E+01  6.000E-02  1.567E+00
   1   11    7     6     3    4.3294E+01  2.8165E-01   4.3012E+01  0.000E+00  0.000E+00  0.000E+00  1.03533E+03  1.694E+00  1.200E+01  6.000E-02  1.565E+00
   1   12    7     6     4    4.3012E+01  2.8126E-01   4.2731E+01  0.000E+00  0.000E+00  0.000E+00  1.03078E+03  1.688E+00  1.200E+01  6.000E-02  1.563E+00
   1   13    7     6     5    4.2731E+01  1.2816E-02   4.2718E+01  0.000E+00  0.000E+00  0.000E+00  1.02759E+03  1.684E+00  1.200E+01  2.400E-02  1.780E-01
   1   14    9     7     1    1.5000E+02  1.3477E+00   1.4865E+02  0.000E+00  0.000E+00  0.000E+00  1.03987E+03  2.288E+00  5.529E+01  5.593E-01  8.032E-01
   1   13    8     7     2    1.4865E+02  1.8517E+00   1.4680E+02  0.000E+00  0.000E+00  0.000E+00  1.03478E+03  2.279E+00  5.526E+01  6.148E-01  1.004E+00
   1   13    7     7     3    1.4680E+02  1.4690E+00   1.4533E+02  0.000E+00  0.000E+00  0.000E+00  1.02969E+03  2.270E+00  5.522E+01  5.584E-01  8.768E-01
   1   13    6     8     1    1.8805E+02  9.8426E-01   1.8707E+02  0.000E+00  0.000E+00  0.000E+00  1.02494E+03  3.063E+00  4.441E+01  4.526E-01  7.249E-01
   1   13    5     8     2    1.8707E+02  1.9969E-01   1.8687E+02  0.000E+00  0.000E+00  0.000E+00  1.01868E+03  3.059E+00  4.436E+01  4.521E-01  1.472E-01
   1   13    4     8     3    1.8687E+02 -2.4116E+00   1.8928E+02  0.000E+00  0.000E+00  0.000E+00  1.01244E+03  3.066E+00  4.446E+01  4.531E+00 -1.774E-01
   1   13    3     8     4    1.8928E+02 -3.6008E+00   1.9288E+02  0.000E+00  0.000E+00  0.000E+00  1.00621E+03  3.084E+00  4.472E+01  4.558E+00 -2.634E-01
   1   13    2     8     5    1.9288E+02 -2.4895E+00   1.9537E+02  0.000E+00  0.000E+00  0.000E+00  9.99978E+02  3.103E+00  4.499E+01  4.585E+00 -1.810E-01
   1   13    1     8     6    1.9537E+02 -1.8929E+00   1.9726E+02  0.000E+00  0.000E+00  0.000E+00  9.94991E+02  3.116E+00  4.518E+01  2.762E+00 -2.284E-01
   1    8    6     9     1    2.2470E+01  0.0000E+00   2.2470E+01  0.000E+00  0.000E+00  0.000E+00  1.08243E+03  3.683E+00  4.000E+00  0.000E+00  2.228E+00
   1    8    5     9     2    2.2470E+01  0.0000E+00   2.2470E+01  0.000E+00  0.000E+00  0.000E+00  1.08193E+03  3.683E+00  4.000E+00  0.000E+00  2.228E+00





UNSATURATED ZONE PACKAGE VOLUMETRIC BUDGET FOR  TIME STEP    30 STRESS PERIOD   31
  ------------------------------------------------------------------------------



     CUMULATIVE VOLUMES      L**3       RATES FOR THIS TIME STEP      L**3/T
     ------------------                 ------------------------

           IN:                                      IN:
           ---                                      ---
        INFILTRATION =  3530832621.3704          INFILTRATION =          23.3179

          OUT:                                     OUT:
          ----                                     ----
              UZF ET =   959362082.7807                UZF ET =          23.3175
        UZF RECHARGE =  2123202970.9165          UZF RECHARGE =          28.3677

            IN - OUT =   448267567.6732              IN - OUT =         -28.3673

          STORAGE:                                 STORAGE:
          --------                                 --------
      STORAGE CHANGE =   448260082.8222        STORAGE CHANGE =         -28.3673

 PERCENT DISCREPANCY IS DIFFERENCE BETWEEN IN-OUT MINUS CHANGE IN STORAGE
 DIVIDED BY THE AVERAGE OF IN AND OUT TIMES 100

 PERCENT DISCREPANCY =           0.00     PERCENT DISCREPANCY =           0.00






1
  VOLUMETRIC BUDGET FOR AGRICULTURAL FIELDS AT  END OF TIME STEP   30, STRESS PERIOD  31
  ------------------------------------------------------------------------------

     CUMULATIVE VOLUMES      L**3       RATES FOR THIS TIME STEP      L**3/T
     ------------------                 ------------------------

           IN:                                      IN:
           ---                                      ---
           AG WELLS      =  2197649664.0000             AG WELLS      =           0.0000
      DIVERSION SEGMENTS =  1266218240.0000        DIVERSION SEGMENTS =          22.4700
           GW IRRIGATION =           0.0000             GW IRRIGATION =           0.0000
           SW IRRIGATION =           0.0000             SW IRRIGATION =           0.0000
        SYSTEM LOSSES GW =           0.0000          SYSTEM LOSSES GW =           0.0000
        SYSTEM LOSSES SW =           0.0000          SYSTEM LOSSES SW =           0.0000

                TOTAL IN =  3463867904.0000                  TOTAL IN =          22.4700

          OUT:                                     OUT:
          ----                                     ----
           AG WELLS      =           0.0000             AG WELLS      =           0.0000
      DIVERSION SEGMENTS =           0.0000        DIVERSION SEGMENTS =           0.0000
           GW IRRIGATION =  2197649664.0000             GW IRRIGATION =           0.0000
           SW IRRIGATION =  1266242304.0000             SW IRRIGATION =          22.4704
        SYSTEM LOSSES GW =           0.0000          SYSTEM LOSSES GW =           0.0000
        SYSTEM LOSSES SW =           0.0000          SYSTEM LOSSES SW =           0.0000

               TOTAL OUT =  3463891968.0000                 TOTAL OUT =          22.4704

                IN - OUT =      -24064.0000                  IN - OUT =      -4.4823E-04

     PERCENT DISCREPANCY =          -0.00         PERCENT DISCREPANCY =          -0.00



1
  VOLUMETRIC BUDGET FOR ENTIRE MODEL AT END OF TIME STEP   30, STRESS PERIOD  31
  ------------------------------------------------------------------------------

     CUMULATIVE VOLUMES      L**3       RATES FOR THIS TIME STEP      L**3/T
     ------------------                 ------------------------

           IN:                                      IN:
           ---                                      ---
             STORAGE     =  2236740608.0000               STORAGE     =           2.9772
       CONSTANT HEAD     =           0.0000         CONSTANT HEAD     =           0.0000
     HEAD DEP BOUNDS     =    22597774.0000       HEAD DEP BOUNDS     =           0.2866
      STREAM LEAKAGE     =   946579520.0000        STREAM LEAKAGE     =          12.9126
        UZF RECHARGE     =  2123202176.0000          UZF RECHARGE     =          28.3677
               GW ET     =           0.0000                 GW ET     =           0.0000
     SURFACE LEAKAGE     =           0.0000       SURFACE LEAKAGE     =           0.0000
           AG WELLS      =           0.0000             AG WELLS      =           0.0000

                TOTAL IN =  5329120256.0000                  TOTAL IN =          44.5441

          OUT:                                     OUT:
          ----                                     ----
             STORAGE     =  2261143808.0000               STORAGE     =          33.8501
       CONSTANT HEAD     =           0.0000         CONSTANT HEAD     =           0.0000
     HEAD DEP BOUNDS     =    22877502.0000       HEAD DEP BOUNDS     =           0.2917
      STREAM LEAKAGE     =   847317888.0000        STREAM LEAKAGE     =          10.3949
        UZF RECHARGE     =           0.0000          UZF RECHARGE     =           0.0000
               GW ET     =      151061.6094                 GW ET     =           0.0000
     SURFACE LEAKAGE     =           0.0000       SURFACE LEAKAGE     =           0.0000
           AG WELLS      =  2197649664.0000             AG WELLS      =           0.0000

               TOTAL OUT =  5329139712.0000                 TOTAL OUT =          44.5367

                IN - OUT =      -19456.0000                  IN - OUT =       7.3471E-03

     PERCENT DISCREPANCY =          -0.00         PERCENT DISCREPANCY =           0.02






         TIME SUMMARY AT END OF TIME STEP   30 IN STRESS PERIOD   31
                    SECONDS     MINUTES      HOURS       DAYS        YEARS
                    -----------------------------------------------------------
   TIME STEP LENGTH  87667.      1461.1      24.352      1.0147     2.77799E-03
 STRESS PERIOD TIME 2.63000E+06  43833.      730.56      30.440     8.33397E-02
         TOTAL TIME 7.89864E+07 1.31644E+06  21941.      914.20      2.5029    
1
1
                            STRESS PERIOD NO.   32, LENGTH =   2630000.    
                            -----------------------------------------------

                              NUMBER OF TIME STEPS =    30

                               MULTIPLIER FOR DELT =     1.000

                            INITIAL TIME STEP SIZE =   87666.66    

 REUSING NON-PARAMETER GHB CELLS FROM LAST STRESS PERIOD

      2 GHB CELLS

 REUSING STREAM SEGMENT DATA FROM LAST STRESS PERIOD



            AREAL INFILTRATION RATE
 READING ON UNIT   19 WITH FORMAT: (FREE)              

            1           2           3           4           5           6           7           8           9          10
 ........................................................................................................................
   1   1.0000E-10  2.0000E-10   0.000       0.000       0.000       0.000       0.000       0.000       0.000       0.000    
   2   2.0000E-10  1.0000E-10  2.0000E-10   0.000       0.000      8.0000E-10  8.0000E-10  5.0000E-10   0.000       0.000    
   3    0.000      5.0000E-10  1.0000E-10  1.0000E-10  8.0000E-10  8.0000E-10  5.0000E-10  5.0000E-10   0.000       0.000    
   4   8.0000E-10  5.0000E-10  1.0000E-10  1.0000E-10  1.0000E-10  1.0000E-10  1.0000E-10  1.0000E-10  2.0000E-10   0.000    
   5   8.0000E-10  5.0000E-10  1.0000E-10  1.0000E-10  1.0000E-10  1.0000E-10  1.0000E-10  1.0000E-10  1.0000E-10  1.0000E-10
   6   8.0000E-10  5.0000E-10  5.0000E-10  2.0000E-10  2.0000E-10  1.0000E-10  1.0000E-10  1.0000E-10  1.0000E-10  5.0000E-10
   7   8.0000E-10  5.0000E-10  5.0000E-10  2.0000E-10  2.0000E-10  1.0000E-10  1.0000E-10  2.0000E-10  2.0000E-10   0.000    
   8    0.000      5.0000E-10  5.0000E-10  2.0000E-10  2.0000E-10  1.0000E-10  1.0000E-10  2.0000E-10  5.0000E-10   0.000    
   9    0.000      5.0000E-10  5.0000E-10  2.0000E-10  2.0000E-10  1.0000E-10  1.0000E-10  2.0000E-10  5.0000E-10   0.000    
  10    0.000      5.0000E-10  5.0000E-10  2.0000E-10  2.0000E-10  1.0000E-10  1.0000E-10  2.0000E-10  5.0000E-10  8.0000E-10
  11    0.000      1.0000E-10  1.0000E-10  1.0000E-10  1.0000E-10  1.0000E-10  1.0000E-10  2.0000E-10  5.0000E-10   0.000    
  12   1.0000E-10  1.0000E-10  1.0000E-10  1.0000E-10  1.0000E-10  1.0000E-10  1.0000E-10  1.0000E-10  2.0000E-10   0.000    
  13   1.0000E-10  1.0000E-10  2.0000E-10  2.0000E-10  2.0000E-10  2.0000E-10  2.0000E-10  1.0000E-10  1.0000E-10   0.000    
  14    0.000      2.0000E-10  5.0000E-10  5.0000E-10  5.0000E-10  5.0000E-10  5.0000E-10  2.0000E-10  1.0000E-10   0.000    
  15    0.000       0.000      8.0000E-10  8.0000E-10  8.0000E-10  8.0000E-10   0.000       0.000       0.000       0.000    

                  ET RATE =  4.000000E-07

 USING ET EXTINCTION DEPTH FROM PREVIOUS STRESS PERIOD. CURRENT PERIOD IS:      32

 USING EXTINCTION WATER CONTENT FROM PREVIOUS STRESS PERIOD. CURRENT PERIOD IS:      32

 USING AIR ENTRY PRESSURE FROM PREVIOUS STRESS PERIOD. CURRENT PERIOD IS:      32

 USING ROOT PRESSURE HEAD FROM PREVIOUS STRESS PERIOD. CURRENT PERIOD IS:      32

 USING ROOT ACTIVITY FROM PREVIOUS STRESS PERIOD. CURRENT PERIOD IS:      32

 PROCESSING AG STRESS PERIOD DATA

 READING AG STRESS PERIOD DATA

 READING IRRIGATION SEGMENT

 READING IRRIGATION WELL

 READING SUPPLEMENTAL WELL

 END PROCESSING AG STRESS PERIOD DATA OPTIONS
 
 SOLVING FOR HEAD 
                                                   Max.-Head-Change                         Max.-Flux-Residual
  Residual-Control   Outer-Iter.   Inner-Iter.     Column Row Layer    Maximum-Head-Change  Column Row Layer    Maximum-Flux-Residual          L2-NORM 
          0                 1           2             4    5     1       0.6996703215E-01       4    5    1         0.3763650676E+01      0.8598889929E+01
          0                 2           2             4    8     1      -0.1823030928E+00       4    8    1        -0.9641327351E+01      0.2323833786E+02
          0                 3           2             4    6     1      -0.6672797532E-01       4    6    1        -0.3640566544E+01      0.7837892907E+01
          0                 4           2             4    7     1      -0.1644580740E-01       4    7    1        -0.9271830933E+00      0.1073344583E+01
          0                 5           2             4    7     1       0.1120192074E-02       4    7    1         0.6491946095E-01      0.7515061974E-01
          0                 6           1             4    7     1      -0.4459475611E-04       4    7    1        -0.2656466433E-02      0.3074886328E-02

    ------------------------------------------------
       NWT REQUIRED            6 OUTER ITERATIONS 
       AND A TOTAL OF         11 INNER ITERATIONS.
    ------------------------------------------------

 NO OUTPUT CONTROL FOR STRESS PERIOD   32   TIME STEP    1
 
 SOLVING FOR HEAD 
                                                   Max.-Head-Change                         Max.-Flux-Residual
  Residual-Control   Outer-Iter.   Inner-Iter.     Column Row Layer    Maximum-Head-Change  Column Row Layer    Maximum-Flux-Residual          L2-NORM 
          0                 1           2             4    5     1       0.6351346160E-01       4    5    1         0.3429796468E+01      0.8434147181E+01
          0                 2           2             4    8     1      -0.2832127093E+00       4    8    1        -0.1497900340E+02      0.3606688572E+02
          0                 3           2             4    8     1       0.1647265878E+00       4    8    1         0.9000911034E+01      0.1888529242E+02
          0                 4           2             4    8     1      -0.2625282151E+00       4    8    1        -0.1467198119E+02      0.3562696693E+02
          0                 5           2             4    8     1       0.1044300171E-01       4    8    1         0.6060159780E+00      0.1353052256E+01
          0                 6           2             4    8     1      -0.1287726771E-03       4    8    1        -0.7755924626E-02      0.1741326624E-01
          0                 7           1             4    8     1      -0.1893887431E-05       4    8    1        -0.1140666602E-03      0.2560936085E-03

    ------------------------------------------------
       NWT REQUIRED            7 OUTER ITERATIONS 
       AND A TOTAL OF         13 INNER ITERATIONS.
    ------------------------------------------------

 NO OUTPUT CONTROL FOR STRESS PERIOD   32   TIME STEP    2
 
 SOLVING FOR HEAD 
                                                   Max.-Head-Change                         Max.-Flux-Residual
  Residual-Control   Outer-Iter.   Inner-Iter.     Column Row Layer    Maximum-Head-Change  Column Row Layer    Maximum-Flux-Residual          L2-NORM 
          0                 1           2             4    6     1      -0.7240658123E-01       4    6    1        -0.3903142604E+01      0.1077253081E+02
          0                 2           2             4    7     1      -0.2623128944E+00       5    8    1        -0.1375047672E+02      0.3360824048E+02
          0                 3           2             4    7     1       0.1833641325E+00       5    8    1         0.9854587485E+01      0.2412502055E+02
          0                 4           2             4    7     1      -0.2667237565E+00       5    8    1        -0.1472927367E+02      0.3607798765E+02
          0                 5           2             4    7     1       0.1061194055E-01       4    7    1         0.6023540972E+00      0.1475500392E+01
          0                 6           2             4    7     1      -0.1308518716E-03       5    6    1        -0.7636690841E-02      0.1870758904E-01
          0                 7           1             4    7     1      -0.1924469360E-05       5    6    1        -0.1123135153E-03      0.2751364300E-03

    ------------------------------------------------
       NWT REQUIRED            7 OUTER ITERATIONS 
       AND A TOTAL OF         13 INNER ITERATIONS.
    ------------------------------------------------

 NO OUTPUT CONTROL FOR STRESS PERIOD   32   TIME STEP    3
 
 SOLVING FOR HEAD 
                                                   Max.-Head-Change                         Max.-Flux-Residual
  Residual-Control   Outer-Iter.   Inner-Iter.     Column Row Layer    Maximum-Head-Change  Column Row Layer    Maximum-Flux-Residual          L2-NORM 
          0                 1           2             4    6     1      -0.6271908145E-01       4    6    1        -0.3380049071E+01      0.9201809392E+01
          0                 2           2             4    7     1      -0.2625887992E+00       5    8    1        -0.1382142025E+02      0.3373126516E+02
          0                 3           2             4    7     1       0.1833931132E+00       5    8    1         0.9861643930E+01      0.2413737920E+02
          0                 4           2             4    7     1      -0.2667291665E+00       5    8    1        -0.1472976532E+02      0.3607884902E+02
          0                 5           2             4    7     1       0.1061215603E-01       5    7    1         0.6023646645E+00      0.1475534335E+01
          0                 6           2             4    7     1      -0.1308545280E-03       5    6    1        -0.7636958389E-02      0.1870799344E-01
          0                 7           1             4    7     1      -0.1924508566E-05       5    6    1        -0.1123174379E-03      0.2751404849E-03

    ------------------------------------------------
       NWT REQUIRED            7 OUTER ITERATIONS 
       AND A TOTAL OF         13 INNER ITERATIONS.
    ------------------------------------------------

 NO OUTPUT CONTROL FOR STRESS PERIOD   32   TIME STEP    4
 
 SOLVING FOR HEAD 
                                                   Max.-Head-Change                         Max.-Flux-Residual
  Residual-Control   Outer-Iter.   Inner-Iter.     Column Row Layer    Maximum-Head-Change  Column Row Layer    Maximum-Flux-Residual          L2-NORM 
          0                 1           2             4    7     1      -0.5793096478E-01       4    7    1        -0.3052506196E+01      0.7765409892E+01
          0                 2           2             4    7     1      -0.2628853446E+00       5    8    1        -0.1388829393E+02      0.3384970803E+02
          0                 3           2             4    7     1       0.1834241535E+00       5    8    1         0.9868295995E+01      0.2414924132E+02
          0                 4           2             4    7     1      -0.2667348018E+00       5    8    1        -0.1473022880E+02      0.3607967567E+02
          0                 5           2             4    7     1       0.1061238045E-01       5    6    1         0.6023831903E+00      0.1475566902E+01
          0                 6           2             4    7     1      -0.1308572950E-03       5    6    1        -0.7637209505E-02      0.1870838145E-01
          0                 7           1             4    7     1      -0.1924549116E-05       5    6    1        -0.1123211428E-03      0.2751500427E-03

    ------------------------------------------------
       NWT REQUIRED            7 OUTER ITERATIONS 
       AND A TOTAL OF         13 INNER ITERATIONS.
    ------------------------------------------------

 NO OUTPUT CONTROL FOR STRESS PERIOD   32   TIME STEP    5
 
 SOLVING FOR HEAD 
                                                   Max.-Head-Change                         Max.-Flux-Residual
  Residual-Control   Outer-Iter.   Inner-Iter.     Column Row Layer    Maximum-Head-Change  Column Row Layer    Maximum-Flux-Residual          L2-NORM 
          0                 1           2             4    7     1      -0.5481878661E-01       4    7    1        -0.2900574886E+01      0.6480948798E+01
          0                 2           2             4    7     1      -0.2632003790E+00       5    8    1        -0.1395138578E+02      0.3396375498E+02
          0                 3           2             4    7     1       0.1834570366E+00       5    8    1         0.9874572278E+01      0.2416063328E+02
          0                 4           2             4    7     1      -0.2667406369E+00       5    8    1        -0.1473066613E+02      0.3608046942E+02
          0                 5           2             4    7     1       0.1061261280E-01       5    6    1         0.6024023385E+00      0.1475598166E+01
          0                 6           2             4    7     1      -0.1308601598E-03       5    6    1        -0.7637445399E-02      0.1870875408E-01
          0                 7           1             4    7     1      -0.1924591458E-05       5    6    1        -0.1123245988E-03      0.2751660637E-03

    ------------------------------------------------
       NWT REQUIRED            7 OUTER ITERATIONS 
       AND A TOTAL OF         13 INNER ITERATIONS.
    ------------------------------------------------

 NO OUTPUT CONTROL FOR STRESS PERIOD   32   TIME STEP    6
 
 SOLVING FOR HEAD 
                                                   Max.-Head-Change                         Max.-Flux-Residual
  Residual-Control   Outer-Iter.   Inner-Iter.     Column Row Layer    Maximum-Head-Change  Column Row Layer    Maximum-Flux-Residual          L2-NORM 
          0                 1           2             4    7     1      -0.5154330454E-01       4    7    1        -0.2739114478E+01      0.5381485682E+01
          0                 2           2             4    7     1      -0.2635318072E+00       5    8    1        -0.1401095853E+02      0.3407359216E+02
          0                 3           2             4    7     1       0.1834915540E+00       5    8    1         0.9880498868E+01      0.2417157991E+02
          0                 4           2             4    7     1      -0.2667466465E+00       5    8    1        -0.1473107911E+02      0.3608123210E+02
          0                 5           2             4    7     1       0.1061283905E-01       5    7    1         0.6023997881E+00      0.1474195042E+01
          0                 6           2             4    7     1      -0.1308635405E-03       5    8    1        -0.7730904277E-02      0.1873350609E-01
          0                 7           1             4    7     1      -0.1924640745E-05       5    8    1        -0.1136991025E-03      0.2755154609E-03

    ------------------------------------------------
       NWT REQUIRED            7 OUTER ITERATIONS 
       AND A TOTAL OF         13 INNER ITERATIONS.
    ------------------------------------------------

 NO OUTPUT CONTROL FOR STRESS PERIOD   32   TIME STEP    7
 
 SOLVING FOR HEAD 
                                                   Max.-Head-Change                         Max.-Flux-Residual
  Residual-Control   Outer-Iter.   Inner-Iter.     Column Row Layer    Maximum-Head-Change  Column Row Layer    Maximum-Flux-Residual          L2-NORM 
          0                 1           2             4    7     1      -0.4812282950E-01       4    7    1        -0.2569148547E+01      0.4524020039E+01
          0                 2           2             4    7     1      -0.2638779583E+00       5    8    1        -0.1406725496E+02      0.3417932071E+02
          0                 3           2             4    7     1       0.1835276037E+00       5    6    1         0.9882602553E+01      0.2400701104E+02
          0                 4           2             4    7     1      -0.2667530761E+00       5    7    1        -0.1473503575E+02      0.3595818291E+02
          0                 5           2             4    7     1       0.1061308669E-01       5    7    1         0.6092049771E+00      0.1361379644E+01
          0                 6           2             4    7     1      -0.1308660646E-03       5    7    1        -0.7803325744E-02      0.1744936089E-01
          0                 7           1             4    7     1      -0.1924677710E-05       5    7    1        -0.1147638227E-03      0.2566246810E-03

    ------------------------------------------------
       NWT REQUIRED            7 OUTER ITERATIONS 
       AND A TOTAL OF         13 INNER ITERATIONS.
    ------------------------------------------------

 NO OUTPUT CONTROL FOR STRESS PERIOD   32   TIME STEP    8
 
 SOLVING FOR HEAD 
                                                   Max.-Head-Change                         Max.-Flux-Residual
  Residual-Control   Outer-Iter.   Inner-Iter.     Column Row Layer    Maximum-Head-Change  Column Row Layer    Maximum-Flux-Residual          L2-NORM 
          0                 1           2             4    7     1      -0.4457614076E-01       4    7    1        -0.2391689073E+01      0.3978872636E+01
          0                 2           2             4    7     1      -0.2642368710E+00       5    8    1        -0.1411871683E+02      0.3427910133E+02
          0                 3           2             4    7     1       0.1835650412E+00       5    7    1         0.9885751661E+01      0.2385141392E+02
          0                 4           2             4    7     1      -0.2667595353E+00       5    7    1        -0.1474026412E+02      0.3583503184E+02
          0                 5           2             4    7     1       0.1061264942E-01       5    7    1         0.6118741561E+00      0.1238883477E+01
          0                 6           2             4    7     1      -0.1308606326E-03       5    7    1        -0.7919055491E-02      0.1612978533E-01
          0                 7           1             4    7     1      -0.1924598179E-05       5    7    1        -0.1164653656E-03      0.2372124811E-03

    ------------------------------------------------
       NWT REQUIRED            7 OUTER ITERATIONS 
       AND A TOTAL OF         13 INNER ITERATIONS.
    ------------------------------------------------

 NO OUTPUT CONTROL FOR STRESS PERIOD   32   TIME STEP    9
 
 SOLVING FOR HEAD 
                                                   Max.-Head-Change                         Max.-Flux-Residual
  Residual-Control   Outer-Iter.   Inner-Iter.     Column Row Layer    Maximum-Head-Change  Column Row Layer    Maximum-Flux-Residual          L2-NORM 
          0                 1           2             4    7     1      -0.4092149720E-01       4    7    1        -0.2207706233E+01      0.3793498078E+01
          0                 2           2             5    7     1      -0.2647587243E+00       5    8    1        -0.1416754982E+02      0.3437415170E+02
          0                 3           2             4    7     1       0.1836074265E+00       5    7    1         0.9889564041E+01      0.2385972454E+02
          0                 4           2             4    7     1      -0.2667718196E+00       5    7    1        -0.1474039119E+02      0.3583546484E+02
          0                 5           2             4    7     1       0.1061391624E-01       5    7    1         0.6160379096E+00      0.1240988198E+01
          0                 6           2             4    7     1      -0.1308762315E-03       5    7    1        -0.7969355543E-02      0.1615418258E-01
          0                 7           1             4    7     1      -0.1924827587E-05       5    7    1        -0.1172051379E-03      0.2375709251E-03

    ------------------------------------------------
       NWT REQUIRED            7 OUTER ITERATIONS 
       AND A TOTAL OF         13 INNER ITERATIONS.
    ------------------------------------------------

 NO OUTPUT CONTROL FOR STRESS PERIOD   32   TIME STEP   10
 
 SOLVING FOR HEAD 
                                                   Max.-Head-Change                         Max.-Flux-Residual
  Residual-Control   Outer-Iter.   Inner-Iter.     Column Row Layer    Maximum-Head-Change  Column Row Layer    Maximum-Flux-Residual          L2-NORM 
          0                 1           2             4    7     1      -0.3718637435E-01       4    7    1        -0.2018434876E+01      0.3963249422E+01
          0                 2           2             5    7     1      -0.2653934785E+00       5    8    1        -0.1421388598E+02      0.3446477432E+02
          0                 3           2             4    7     1       0.1836464031E+00       5    7    1         0.9892965424E+01      0.2386757076E+02
          0                 4           2             4    7     1      -0.2667781249E+00       5    7    1        -0.1474062658E+02      0.3583591986E+02
          0                 5           2             4    7     1       0.1061416712E-01       5    7    1         0.6160392037E+00      0.1240953998E+01
          0                 6           2             4    7     1      -0.1308793242E-03       5    7    1        -0.7969269547E-02      0.1615263862E-01
          0                 7           1             4    7     1      -0.1924873066E-05       5    7    1        -0.1172039063E-03      0.2375486849E-03

    ------------------------------------------------
       NWT REQUIRED            7 OUTER ITERATIONS 
       AND A TOTAL OF         13 INNER ITERATIONS.
    ------------------------------------------------

 NO OUTPUT CONTROL FOR STRESS PERIOD   32   TIME STEP   11
 
 SOLVING FOR HEAD 
                                                   Max.-Head-Change                         Max.-Flux-Residual
  Residual-Control   Outer-Iter.   Inner-Iter.     Column Row Layer    Maximum-Head-Change  Column Row Layer    Maximum-Flux-Residual          L2-NORM 
          0                 1           2             5    8     1       0.3919492117E-01       5    8    1         0.2187043432E+01      0.4398896693E+01
          0                 2           2             5    7     1      -0.2660146901E+00       5    8    1        -0.1425788443E+02      0.3455240870E+02
          0                 3           2             4    7     1       0.1836873439E+00       5    7    1         0.9896291839E+01      0.2353079016E+02
          0                 4           2             4    7     1      -0.2667856869E+00       5    7    1        -0.1474085675E+02      0.3558928957E+02
          0                 5           2             4    7     1       0.1061357628E-01       5    7    1         0.6160405102E+00      0.9382604164E+00
          0                 6           2             4    7     1      -0.1308750222E-03       5    7    1        -0.7969163692E-02      0.1260449709E-01
          0                 7           1             4    7     1      -0.1924810113E-05       5    7    1        -0.1172023176E-03      0.1853508831E-03

    ------------------------------------------------
       NWT REQUIRED            7 OUTER ITERATIONS 
       AND A TOTAL OF         13 INNER ITERATIONS.
    ------------------------------------------------

 NO OUTPUT CONTROL FOR STRESS PERIOD   32   TIME STEP   12
 
 SOLVING FOR HEAD 
                                                   Max.-Head-Change                         Max.-Flux-Residual
  Residual-Control   Outer-Iter.   Inner-Iter.     Column Row Layer    Maximum-Head-Change  Column Row Layer    Maximum-Flux-Residual          L2-NORM 
          0                 1           2             5    8     1       0.4685264783E-01       5    8    1         0.2605160166E+01      0.5002235937E+01
          0                 2           2             4    7     1      -0.2657677540E+00       5    8    1        -0.1429969838E+02      0.3463706267E+02
          0                 3           2             4    7     1       0.1837278258E+00       4    7    1         0.9885627833E+01      0.2336105294E+02
          0                 4           2             4    7     1      -0.2667949017E+00       4    7    1        -0.1474333501E+02      0.3546241694E+02
          0                 5           2             4    7     1       0.1061473413E-01       4    7    1         0.6208357022E+00      0.7387682249E+00
          0                 6           1             4    7     1      -0.1308917111E-03       4    7    1        -0.8088521249E-02      0.1021463037E-01
          0                 7           1             4    7     1      -0.1925056548E-05       4    7    1        -0.1189574750E-03      0.1501908386E-03

    ------------------------------------------------
       NWT REQUIRED            7 OUTER ITERATIONS 
       AND A TOTAL OF         12 INNER ITERATIONS.
    ------------------------------------------------

 NO OUTPUT CONTROL FOR STRESS PERIOD   32   TIME STEP   13
 
 SOLVING FOR HEAD 
                                                   Max.-Head-Change                         Max.-Flux-Residual
  Residual-Control   Outer-Iter.   Inner-Iter.     Column Row Layer    Maximum-Head-Change  Column Row Layer    Maximum-Flux-Residual          L2-NORM 
          0                 1           2             5    8     1       0.5413725101E-01       5    8    1         0.3002691236E+01      0.5694656686E+01
          0                 2           2             4    7     1      -0.2661653738E+00       5    8    1        -0.1433945392E+02      0.3471833786E+02
          0                 3           2             4    7     1       0.1838150624E+00       4    7    1         0.9884550786E+01      0.2337152929E+02
          0                 4           2             4    7     1      -0.2668481817E+00       4    7    1        -0.1474619205E+02      0.3546342964E+02
          0                 5           2             4    7     1       0.1052490258E-01       4    7    1         0.6150990640E+00      0.7373719376E+00
          0                 6           1             4    7     1      -0.1297827673E-03       4    7    1        -0.8016862210E-02      0.1020747525E-01
          0                 7           1             4    7     1      -0.1908747246E-05       4    7    1        -0.1179035726E-03      0.1501211317E-03

    ------------------------------------------------
       NWT REQUIRED            7 OUTER ITERATIONS 
       AND A TOTAL OF         12 INNER ITERATIONS.
    ------------------------------------------------

 NO OUTPUT CONTROL FOR STRESS PERIOD   32   TIME STEP   14
 
 SOLVING FOR HEAD 
                                                   Max.-Head-Change                         Max.-Flux-Residual
  Residual-Control   Outer-Iter.   Inner-Iter.     Column Row Layer    Maximum-Head-Change  Column Row Layer    Maximum-Flux-Residual          L2-NORM 
          0                 1           2             5    8     1       0.6120295293E-01       5    8    1         0.3393065666E+01      0.6439453934E+01
          0                 2           2             4    7     1      -0.2666998207E+00       5    8    1        -0.1437847842E+02      0.3479723811E+02
          0                 3           2             4    7     1       0.1839097043E+00       4    7    1         0.9889694710E+01      0.2337520472E+02
          0                 4           2             4    7     1      -0.2669515728E+00       4    7    1        -0.1474357342E+02      0.3546300985E+02
          0                 5           2             4    7     1       0.1062168267E-01       4    7    1         0.6208447021E+00      0.7388100997E+00
          0                 6           1             4    7     1      -0.1309762254E-03       4    7    1        -0.8087973559E-02      0.1021463938E-01
          0                 7           1             4    7     1      -0.1926299253E-05       4    7    1        -0.1189494008E-03      0.1501906426E-03

    ------------------------------------------------
       NWT REQUIRED            7 OUTER ITERATIONS 
       AND A TOTAL OF         12 INNER ITERATIONS.
    ------------------------------------------------

 NO OUTPUT CONTROL FOR STRESS PERIOD   32   TIME STEP   15
 
 SOLVING FOR HEAD 
                                                   Max.-Head-Change                         Max.-Flux-Residual
  Residual-Control   Outer-Iter.   Inner-Iter.     Column Row Layer    Maximum-Head-Change  Column Row Layer    Maximum-Flux-Residual          L2-NORM 
          0                 1           2             5    8     1       0.6803767631E-01       5    8    1         0.3766441770E+01      0.7200248987E+01
          0                 2           2             4    7     1      -0.2670810644E+00       5    8    1        -0.1441581517E+02      0.3487348430E+02
          0                 3           2             4    7     1       0.1839478619E+00       4    7    1         0.9891665233E+01      0.2338076923E+02
          0                 4           2             4    7     1      -0.2669559003E+00       4    7    1        -0.1474370484E+02      0.3546324179E+02
          0                 5           2             4    7     1       0.1062187771E-01       4    7    1         0.6208365960E+00      0.7388309800E+00
          0                 6           1             4    7     1      -0.1309786261E-03       4    7    1        -0.8087742215E-02      0.1021474396E-01
          0                 7           1             4    7     1      -0.1926334874E-05       4    7    1        -0.1189460083E-03      0.1501934694E-03

    ------------------------------------------------
       NWT REQUIRED            7 OUTER ITERATIONS 
       AND A TOTAL OF         12 INNER ITERATIONS.
    ------------------------------------------------

 NO OUTPUT CONTROL FOR STRESS PERIOD   32   TIME STEP   16
 
 SOLVING FOR HEAD 
                                                   Max.-Head-Change                         Max.-Flux-Residual
  Residual-Control   Outer-Iter.   Inner-Iter.     Column Row Layer    Maximum-Head-Change  Column Row Layer    Maximum-Flux-Residual          L2-NORM 
          0                 1           2             5    8     1       0.7454448247E-01       5    8    1         0.4121635816E+01      0.7958540292E+01
          0                 2           2             4    7     1      -0.2674663333E+00       5    8    1        -0.1445133365E+02      0.3494733944E+02
          0                 3           2             4    7     1       0.1839864296E+00       4    7    1         0.9893660233E+01      0.2338619161E+02
          0                 4           2             4    7     1      -0.2669602490E+00       4    7    1        -0.1474383801E+02      0.3546348973E+02
          0                 5           2             4    7     1       0.1062205635E-01       4    7    1         0.6208286729E+00      0.7388347977E+00
          0                 6           1             4    7     1      -0.1309808285E-03       4    7    1        -0.8087486671E-02      0.1021454246E-01
          0                 7           1             4    7     1      -0.1926367135E-05       4    7    1        -0.1189422535E-03      0.1502417121E-03

    ------------------------------------------------
       NWT REQUIRED            7 OUTER ITERATIONS 
       AND A TOTAL OF         12 INNER ITERATIONS.
    ------------------------------------------------

 NO OUTPUT CONTROL FOR STRESS PERIOD   32   TIME STEP   17
 
 SOLVING FOR HEAD 
                                                   Max.-Head-Change                         Max.-Flux-Residual
  Residual-Control   Outer-Iter.   Inner-Iter.     Column Row Layer    Maximum-Head-Change  Column Row Layer    Maximum-Flux-Residual          L2-NORM 
          0                 1           2             5    8     1       0.8074382331E-01       5    8    1         0.4459788597E+01      0.8705920967E+01
          0                 2           2             4    7     1      -0.2678548001E+00       5    8    1        -0.1448514796E+02      0.3501891308E+02
          0                 3           2             4    7     1       0.1840253096E+00       4    7    1         0.9895675063E+01      0.2339141786E+02
          0                 4           2             4    7     1      -0.2669646507E+00       4    7    1        -0.1474397258E+02      0.3546373025E+02
          0                 5           2             4    7     1       0.1062223143E-01       4    7    1         0.6208209850E+00      0.7388331408E+00
          0                 6           1             4    7     1      -0.1309829881E-03       4    7    1        -0.8087227175E-02      0.1021424380E-01
          0                 7           1             4    7     1      -0.1926399171E-05       4    7    1        -0.1189384416E-03      0.1501840181E-03

    ------------------------------------------------
       NWT REQUIRED            7 OUTER ITERATIONS 
       AND A TOTAL OF         12 INNER ITERATIONS.
    ------------------------------------------------

 NO OUTPUT CONTROL FOR STRESS PERIOD   32   TIME STEP   18
 
 SOLVING FOR HEAD 
                                                   Max.-Head-Change                         Max.-Flux-Residual
  Residual-Control   Outer-Iter.   Inner-Iter.     Column Row Layer    Maximum-Head-Change  Column Row Layer    Maximum-Flux-Residual          L2-NORM 
          0                 1           2             5    8     1       0.8665459785E-01       5    8    1         0.4781957926E+01      0.9437555755E+01
          0                 2           2             4    7     1      -0.2682451166E+00       5    8    1        -0.1451985370E+02      0.3508831429E+02
          0                 3           2             4    7     1       0.1840643086E+00       4    7    1         0.9897704405E+01      0.2339649146E+02
          0                 4           2             4    7     1      -0.2669689635E+00       4    7    1        -0.1474410803E+02      0.3546396436E+02
          0                 5           2             4    7     1       0.1062240291E-01       4    7    1         0.6208132927E+00      0.7388314303E+00
          0                 6           1             4    7     1      -0.1309851032E-03       4    7    1        -0.8086967195E-02      0.1021394818E-01
          0                 7           1             4    7     1      -0.1926430088E-05       4    7    1        -0.1189346240E-03      0.1501830247E-03

    ------------------------------------------------
       NWT REQUIRED            7 OUTER ITERATIONS 
       AND A TOTAL OF         12 INNER ITERATIONS.
    ------------------------------------------------

 NO OUTPUT CONTROL FOR STRESS PERIOD   32   TIME STEP   19
 
 SOLVING FOR HEAD 
                                                   Max.-Head-Change                         Max.-Flux-Residual
  Residual-Control   Outer-Iter.   Inner-Iter.     Column Row Layer    Maximum-Head-Change  Column Row Layer    Maximum-Flux-Residual          L2-NORM 
          0                 1           2             5    8     1       0.9212580559E-01       5    8    1         0.5086759053E+01      0.1015010527E+02
          0                 2           2             4    7     1      -0.2686385003E+00       5    8    1        -0.1454784762E+02      0.3515556893E+02
          0                 3           2             4    7     1       0.1841037064E+00       4    7    1         0.9899747752E+01      0.2340141562E+02
          0                 4           2             4    7     1      -0.2669734649E+00       4    7    1        -0.1474424478E+02      0.3546419237E+02
          0                 5           2             4    7     1       0.1062258195E-01       4    7    1         0.6208060636E+00      0.7388300230E+00
          0                 6           1             4    7     1      -0.1309873114E-03       4    7    1        -0.8086718026E-02      0.1021366499E-01
          0                 7           1             4    7     1      -0.1926462684E-05       4    7    1        -0.1189309553E-03      0.1501775658E-03

    ------------------------------------------------
       NWT REQUIRED            7 OUTER ITERATIONS 
       AND A TOTAL OF         12 INNER ITERATIONS.
    ------------------------------------------------

 NO OUTPUT CONTROL FOR STRESS PERIOD   32   TIME STEP   20
 
 SOLVING FOR HEAD 
                                                   Max.-Head-Change                         Max.-Flux-Residual
  Residual-Control   Outer-Iter.   Inner-Iter.     Column Row Layer    Maximum-Head-Change  Column Row Layer    Maximum-Flux-Residual          L2-NORM 
          0                 1           2             5    8     1       0.2102052942E+00       5    8    1         0.1160608091E+02      0.1494584652E+02
          0                 2           2             5    6     1      -0.2643026596E+00       5    6    1        -0.1454688338E+02      0.3320006274E+02
          0                 3           2             4    7     1       0.1714575831E+00       5    6    1         0.9497724812E+01      0.2159040725E+02
          0                 4           2             4    7     1      -0.2543442664E+00       5    6    1        -0.1442754082E+02      0.3436839545E+02
          0                 5           2             5    8     1      -0.1044496177E+00       5    8    1        -0.6274145840E+01      0.6287453015E+01
          0                 6           2             5    8     1      -0.5320113858E-01       5    8    1        -0.3192735862E+01      0.3192741143E+01
          0                 7           2             5    8     1      -0.7316680725E-02       5    8    1        -0.4390333747E+00      0.4390525260E+00
          0                 8           1             5    8     1       0.9042945470E-04       5    8    1         0.5587807731E-02      0.5630141705E-02

    ------------------------------------------------
       NWT REQUIRED            8 OUTER ITERATIONS 
       AND A TOTAL OF         15 INNER ITERATIONS.
    ------------------------------------------------

 NO OUTPUT CONTROL FOR STRESS PERIOD   32   TIME STEP   21
 
 SOLVING FOR HEAD 
                                                   Max.-Head-Change                         Max.-Flux-Residual
  Residual-Control   Outer-Iter.   Inner-Iter.     Column Row Layer    Maximum-Head-Change  Column Row Layer    Maximum-Flux-Residual          L2-NORM 
          0                 1           2             5    8     1       0.5896606894E+00       5    8    1         0.3256558948E+02      0.3407641545E+02
          0                 2           2             5    6     1      -0.2648197505E+00       5    6    1        -0.1457824369E+02      0.3214134696E+02
          0                 3           2             4    7     1       0.1715199227E+00       5    6    1         0.9499918671E+01      0.2295444533E+02
          0                 4           2             4    7     1      -0.2543285476E+00       5    6    1        -0.1442763076E+02      0.3370344796E+02
          0                 5           2             5    8     1      -0.8677567268E-01       5    8    1        -0.4934063538E+01      0.4950321740E+01
          0                 6           2             5    8     1      -0.4178700836E-01       5    8    1        -0.2373236918E+01      0.2373249217E+01
          0                 7           2             5    8     1      -0.2012243974E-01       5    8    1        -0.1142738682E+01      0.1142754802E+01
          0                 8           2             5    8     1      -0.9689817281E-02       5    8    1        -0.5502687694E+00      0.5502772349E+00
          0                 9           1             5    8     1      -0.4666015783E-02       5    8    1        -0.2649725597E+00      0.2649766664E+00
          0                10           1             5    8     1      -0.2246841649E-02       5    8    1        -0.1275918493E+00      0.1275938281E+00
                                                   Max.-Head-Change                         Max.-Flux-Residual
  Residual-Control   Outer-Iter.   Inner-Iter.     Column Row Layer    Maximum-Head-Change  Column Row Layer    Maximum-Flux-Residual          L2-NORM 
          0                11           1             5    8     1      -0.1081918047E-02       5    8    1        -0.6143851320E-01      0.6143946610E-01
          0                12           1             5    8     1      -0.5209690203E-03       5    8    1        -0.2958381217E-01      0.2958427101E-01
          0                13           1             5    8     1      -0.2508563296E-03       5    8    1        -0.1424502534E-01      0.1424524629E-01
          0                14           1             5    8     1      -0.1207908004E-03       5    8    1        -0.6859112970E-02      0.6859219367E-02
          0                15           1             5    8     1      -0.5816185976E-04       5    8    1        -0.3302693864E-02      0.3302745093E-02

    ------------------------------------------------
       NWT REQUIRED           15 OUTER ITERATIONS 
       AND A TOTAL OF         23 INNER ITERATIONS.
    ------------------------------------------------

 NO OUTPUT CONTROL FOR STRESS PERIOD   32   TIME STEP   22
 
 SOLVING FOR HEAD 
                                                   Max.-Head-Change                         Max.-Flux-Residual
  Residual-Control   Outer-Iter.   Inner-Iter.     Column Row Layer    Maximum-Head-Change  Column Row Layer    Maximum-Flux-Residual          L2-NORM 
          0                 1           2             5    8     1       0.5775792860E+00       5    8    1         0.3185969548E+02      0.3362577936E+02
          0                 2           2             5    6     1      -0.2652838059E+00       5    6    1        -0.1460265558E+02      0.3224241250E+02
          0                 3           2             4    7     1       0.1715403806E+00       5    6    1         0.9501628473E+01      0.2290923434E+02
          0                 4           2             4    7     1      -0.2543267588E+00       5    6    1        -0.1442770127E+02      0.3372270904E+02
          0                 5           2             5    8     1      -0.8734970444E-01       5    8    1        -0.4963685453E+01      0.4979856213E+01
          0                 6           2             5    8     1      -0.4209189315E-01       5    8    1        -0.2389159287E+01      0.2389171216E+01
          0                 7           2             5    8     1      -0.2028295423E-01       5    8    1        -0.1151183054E+01      0.1151198595E+01
          0                 8           2             5    8     1      -0.9773716272E-02       5    8    1        -0.5547091485E+00      0.5547173481E+00
          0                 9           1             5    8     1      -0.4709599153E-02       5    8    1        -0.2672912208E+00      0.2672952029E+00
          0                10           1             5    8     1      -0.2269362264E-02       5    8    1        -0.1287953598E+00      0.1287972801E+00
                                                   Max.-Head-Change                         Max.-Flux-Residual
  Residual-Control   Outer-Iter.   Inner-Iter.     Column Row Layer    Maximum-Head-Change  Column Row Layer    Maximum-Flux-Residual          L2-NORM 
          0                11           1             5    8     1      -0.1093501452E-02       5    8    1        -0.6205996893E-01      0.6206089433E-01
          0                12           1             5    8     1      -0.5269028428E-03       5    8    1        -0.2990326482E-01      0.2990371076E-01
          0                13           1             5    8     1      -0.2538851848E-03       5    8    1        -0.1440858503E-01      0.1440879988E-01
          0                14           1             5    8     1      -0.1223319260E-03       5    8    1        -0.6942561164E-02      0.6942664690E-02
          0                15           1             5    8     1      -0.5894376894E-04       5    8    1        -0.3345135688E-02      0.3345185589E-02

    ------------------------------------------------
       NWT REQUIRED           15 OUTER ITERATIONS 
       AND A TOTAL OF         23 INNER ITERATIONS.
    ------------------------------------------------

 NO OUTPUT CONTROL FOR STRESS PERIOD   32   TIME STEP   23
 
 SOLVING FOR HEAD 
                                                   Max.-Head-Change                         Max.-Flux-Residual
  Residual-Control   Outer-Iter.   Inner-Iter.     Column Row Layer    Maximum-Head-Change  Column Row Layer    Maximum-Flux-Residual          L2-NORM 
          0                 1           2             5    8     1       0.5469294452E+00       5    8    1         0.2987245395E+02      0.3806149935E+02
          0                 2           2             4    6     1      -0.2627325731E+00       4    6    1        -0.1441148418E+02      0.2458009247E+02
          0                 3           2             4    7     1       0.1689583512E+00       4    6    1         0.9488213557E+01      0.1765818827E+02
          0                 4           2             4    7     1      -0.2529177141E+00       4    6    1        -0.1442720943E+02      0.3032908992E+02
          0                 5           2             5    7     1      -0.1097750905E+00       5    7    1        -0.6412666564E+01      0.1193596690E+02
          0                 6           2             4    8     1      -0.5398550259E-01       5    6    1        -0.3212294820E+01      0.5269159724E+01
          0                 7           2             4    8     1      -0.2831827847E-01       4    8    1        -0.1651290793E+01      0.2727260710E+01
          0                 8           2             4    8     1      -0.1485222787E-01       4    8    1        -0.8661699630E+00      0.1390084988E+01
          0                 9           2             4    8     1      -0.7788432249E-02       4    8    1        -0.4542742868E+00      0.5942753962E+00
          0                10           2             4    8     1      -0.4083638051E-02       4    8    1        -0.2382137818E+00      0.3102475190E+00
                                                   Max.-Head-Change                         Max.-Flux-Residual
  Residual-Control   Outer-Iter.   Inner-Iter.     Column Row Layer    Maximum-Head-Change  Column Row Layer    Maximum-Flux-Residual          L2-NORM 
          0                11           2             4    8     1      -0.2140846408E-02       4    8    1        -0.1248977209E+00      0.1619988081E+00
          0                12           2             4    8     1      -0.1122191741E-02       4    8    1        -0.6547617208E-01      0.8459250599E-01
          0                13           2             4    8     1      -0.5881580288E-03       4    8    1        -0.3432064146E-01      0.4417404537E-01
          0                14           2             4    8     1      -0.3082253938E-03       4    8    1        -0.1798758949E-01      0.2306834393E-01
          0                15           2             4    8     1      -0.1615072993E-03       4    8    1        -0.9426229541E-02      0.1204698758E-01
          0                16           1             4    8     1      -0.8461884486E-04       4    8    1        -0.4939152714E-02      0.6291471057E-02

    ------------------------------------------------
       NWT REQUIRED           16 OUTER ITERATIONS 
       AND A TOTAL OF         31 INNER ITERATIONS.
    ------------------------------------------------

 NO OUTPUT CONTROL FOR STRESS PERIOD   32   TIME STEP   24
 
 SOLVING FOR HEAD 
                                                   Max.-Head-Change                         Max.-Flux-Residual
  Residual-Control   Outer-Iter.   Inner-Iter.     Column Row Layer    Maximum-Head-Change  Column Row Layer    Maximum-Flux-Residual          L2-NORM 
          0                 1           2             5    6     1       0.6253587576E+00       5    6    1         0.3405712189E+02      0.6340474474E+02
          0                 2           2             4    6     1      -0.2602371671E+00       4    6    1        -0.1443541340E+02      0.2054988612E+02
          0                 3           2             4    8     1       0.1759158426E+00       4    6    1         0.9490845222E+01      0.2231833578E+02
          0                 4           2             4    7     1      -0.2516359228E+00       4    6    1        -0.1441838697E+02      0.2803518643E+02
          0                 5           2             5    7     1      -0.9042558357E-01       5    8    1        -0.5132834015E+01      0.9866010202E+01
          0                 6           2             5    8     1      -0.4627696502E-01       5    8    1        -0.2701879749E+01      0.4973735737E+01
          0                 7           2             5    8     1      -0.2428470297E-01       5    8    1        -0.1419787099E+01      0.2512035410E+01
          0                 8           2             5    8     1      -0.1272558574E-01       5    8    1        -0.7449095582E+00      0.1270468406E+01
          0                 9           2             5    8     1      -0.6659699633E-02       5    8    1        -0.3902726203E+00      0.6433769717E+00
          0                10           2             5    8     1      -0.3481063876E-02       5    8    1        -0.2042070922E+00      0.3262152788E+00
                                                   Max.-Head-Change                         Max.-Flux-Residual
  Residual-Control   Outer-Iter.   Inner-Iter.     Column Row Layer    Maximum-Head-Change  Column Row Layer    Maximum-Flux-Residual          L2-NORM 
          0                11           2             5    8     1      -0.1817578308E-02       5    8    1        -0.1067234012E+00      0.1655971865E+00
          0                12           2             5    8     1      -0.9480620684E-03       5    8    1        -0.5571565991E-01      0.8415565133E-01
          0                13           2             5    8     1      -0.4940576763E-03       5    8    1        -0.2905774262E-01      0.4281210268E-01
          0                14           2             5    8     1      -0.2572450625E-03       5    8    1        -0.1514076164E-01      0.2180087305E-01
          0                15           1             5    8     1      -0.1338360807E-03       5    8    1        -0.7882531374E-02      0.1111159953E-01
          0                16           1             5    8     1      -0.6957956482E-04       5    8    1        -0.4100565289E-02      0.5668216818E-02

    ------------------------------------------------
       NWT REQUIRED           16 OUTER ITERATIONS 
       AND A TOTAL OF         30 INNER ITERATIONS.
    ------------------------------------------------

 NO OUTPUT CONTROL FOR STRESS PERIOD   32   TIME STEP   25
 
 SOLVING FOR HEAD 
                                                   Max.-Head-Change                         Max.-Flux-Residual
  Residual-Control   Outer-Iter.   Inner-Iter.     Column Row Layer    Maximum-Head-Change  Column Row Layer    Maximum-Flux-Residual          L2-NORM 
          0                 1           2             5    7     1       0.6084338058E+00       5    6    1         0.3277441233E+02      0.6504209091E+02
          0                 2           2             4    6     1      -0.1675838334E+00       4    6    1        -0.9334514288E+01      0.1212114362E+02
          0                 3           2             5    7     1       0.1740213687E+00       5    7    1         0.9260218019E+01      0.1905465178E+02
          0                 4           2             4    6     1      -0.2071367580E+00       4    6    1        -0.1195884464E+02      0.2531715005E+02
          0                 5           2             4    6     1      -0.1098719383E+00       4    6    1        -0.6346569916E+01      0.1319239266E+02
          0                 6           2             4    7     1      -0.5663812969E-01       4    7    1        -0.3275169185E+01      0.6009761132E+01
          0                 7           2             4    7     1      -0.2997855745E-01       4    7    1        -0.1736895717E+01      0.3099282479E+01
          0                 8           2             4    7     1      -0.1585334517E-01       4    7    1        -0.9191940550E+00      0.1600880629E+01
          0                 9           2             4    7     1      -0.8376679113E-02       4    7    1        -0.4860321068E+00      0.8279096932E+00
          0                10           2             4    7     1      -0.4422752971E-02       4    7    1        -0.2567834084E+00      0.4286213058E+00
                                                   Max.-Head-Change                         Max.-Flux-Residual
  Residual-Control   Outer-Iter.   Inner-Iter.     Column Row Layer    Maximum-Head-Change  Column Row Layer    Maximum-Flux-Residual          L2-NORM 
          0                11           2             4    7     1      -0.2333509267E-02       4    7    1        -0.1355633044E+00      0.2221171639E+00
          0                12           2             4    7     1      -0.1230399378E-02       4    7    1        -0.7151816657E-01      0.1152026588E+00
          0                13           2             4    7     1      -0.6483714060E-03       4    7    1        -0.3770622239E-01      0.5979614499E-01
          0                14           2             4    7     1      -0.3414776273E-03       4    7    1        -0.1986796095E-01      0.3105819673E-01
          0                15           2             4    7     1      -0.1797541881E-03       4    7    1        -0.1046300514E-01      0.1614125780E-01
          0                16           1             4    7     1      -0.9457803364E-04       4    7    1        -0.5507315509E-02      0.8393165556E-02

    ------------------------------------------------
       NWT REQUIRED           16 OUTER ITERATIONS 
       AND A TOTAL OF         31 INNER ITERATIONS.
    ------------------------------------------------

 NO OUTPUT CONTROL FOR STRESS PERIOD   32   TIME STEP   26
 
 SOLVING FOR HEAD 
                                                   Max.-Head-Change                         Max.-Flux-Residual
  Residual-Control   Outer-Iter.   Inner-Iter.     Column Row Layer    Maximum-Head-Change  Column Row Layer    Maximum-Flux-Residual          L2-NORM 
          0                 1           2             4    7     1       0.6074235687E+00       4    7    1         0.3175316775E+02      0.7517990947E+02
          0                 2           2             4    7     1       0.3427371535E-01       4    7    1         0.1814328256E+01      0.3795606447E+01
          0                 3           2             4    7     1       0.1792641598E+00       4    7    1         0.9371708530E+01      0.2197982410E+02
          0                 4           2             4    8     1      -0.1768646484E+00       5    8    1        -0.9803159084E+01      0.2349824220E+02
          0                 5           2             4    7     1      -0.8972035494E-01       5    8    1        -0.5171602213E+01      0.1198711261E+02
          0                 6           2             5    8     1      -0.4672580999E-01       5    8    1        -0.2724564620E+01      0.6118555174E+01
          0                 7           2             5    8     1      -0.2456349602E-01       5    8    1        -0.1433661230E+01      0.3124781846E+01
          0                 8           2             5    8     1      -0.1289958318E-01       5    8    1        -0.7535545866E+00      0.1596671183E+01
          0                 9           2             5    8     1      -0.6767810137E-02       5    8    1        -0.3956761642E+00      0.8162532596E+00
          0                10           2             5    8     1      -0.3547634518E-02       5    8    1        -0.2075660139E+00      0.4174816386E+00
                                                   Max.-Head-Change                         Max.-Flux-Residual
  Residual-Control   Outer-Iter.   Inner-Iter.     Column Row Layer    Maximum-Head-Change  Column Row Layer    Maximum-Flux-Residual          L2-NORM 
          0                11           2             5    8     1      -0.1858129052E-02       5    8    1        -0.1087913870E+00      0.2136204170E+00
          0                12           2             5    8     1      -0.9724885486E-03       5    8    1        -0.5697474204E-01      0.1093532040E+00
          0                13           2             5    8     1      -0.5086132178E-03       5    8    1        -0.2981568492E-01      0.5600084486E-01
          0                14           2             5    8     1      -0.2658312788E-03       5    8    1        -0.1559209223E-01      0.2868952501E-01
          0                15           1             5    8     1      -0.1388540942E-03       5    8    1        -0.8148575577E-02      0.1470312607E-01
          0                16           1             5    8     1      -0.7248742513E-04       5    8    1        -0.4255938643E-02      0.7537820356E-02

    ------------------------------------------------
       NWT REQUIRED           16 OUTER ITERATIONS 
       AND A TOTAL OF         30 INNER ITERATIONS.
    ------------------------------------------------

 NO OUTPUT CONTROL FOR STRESS PERIOD   32   TIME STEP   27
 
 SOLVING FOR HEAD 
                                                   Max.-Head-Change                         Max.-Flux-Residual
  Residual-Control   Outer-Iter.   Inner-Iter.     Column Row Layer    Maximum-Head-Change  Column Row Layer    Maximum-Flux-Residual          L2-NORM 
          0                 1           2             4    6     1       0.6337336414E+00       4    6    1         0.3367576956E+02      0.7543435901E+02
          0                 2           2             4    6     1       0.4560852574E-01       4    6    1         0.2446302050E+01      0.4160365088E+01
          0                 3           2             4    6     1       0.1821938273E+00       4    6    1         0.9663477093E+01      0.2205576034E+02
          0                 4           2             4    8     1      -0.1778690972E+00       5    8    1        -0.9841905590E+01      0.2346985792E+02
          0                 5           2             4    8     1      -0.9008832303E-01       5    8    1        -0.5192413250E+01      0.1197347622E+02
          0                 6           2             5    8     1      -0.4691652297E-01       5    8    1        -0.2735636507E+01      0.6112036159E+01
          0                 7           2             5    8     1      -0.2466446392E-01       5    8    1        -0.1439538702E+01      0.3121699785E+01
          0                 8           2             5    8     1      -0.1295289362E-01       5    8    1        -0.7566649870E+00      0.1595230383E+01
          0                 9           2             5    8     1      -0.6795888513E-02       5    8    1        -0.3973178651E+00      0.8155884932E+00
          0                10           2             5    8     1      -0.3562390045E-02       5    8    1        -0.2084304155E+00      0.4171796473E+00
                                                   Max.-Head-Change                         Max.-Flux-Residual
  Residual-Control   Outer-Iter.   Inner-Iter.     Column Row Layer    Maximum-Head-Change  Column Row Layer    Maximum-Flux-Residual          L2-NORM 
          0                11           2             5    8     1      -0.1865867289E-02       5    8    1        -0.1092455094E+00      0.2134858233E+00
          0                12           2             5    8     1      -0.9765390275E-03       5    8    1        -0.5721283467E-01      0.1092946721E+00
          0                13           2             5    8     1      -0.5107296892E-03       5    8    1        -0.2994028145E-01      0.5597622516E-01
          0                14           2             5    8     1      -0.2669354033E-03       5    8    1        -0.1565718256E-01      0.2867966166E-01
          0                15           1             5    8     1      -0.1394292366E-03       5    8    1        -0.8182525178E-02      0.1469947540E-01
          0                16           1             5    8     1      -0.7278660433E-04       5    8    1        -0.4273619850E-02      0.7536662571E-02

    ------------------------------------------------
       NWT REQUIRED           16 OUTER ITERATIONS 
       AND A TOTAL OF         30 INNER ITERATIONS.
    ------------------------------------------------

 NO OUTPUT CONTROL FOR STRESS PERIOD   32   TIME STEP   28
 
 SOLVING FOR HEAD 
                                                   Max.-Head-Change                         Max.-Flux-Residual
  Residual-Control   Outer-Iter.   Inner-Iter.     Column Row Layer    Maximum-Head-Change  Column Row Layer    Maximum-Flux-Residual          L2-NORM 
          0                 1           2             4    6     1       0.6196701122E+00       4    6    1         0.3291145969E+02      0.7327053196E+02
          0                 2           2             5    8     1      -0.1991103983E+00       5    8    1        -0.1131842806E+02      0.1189810774E+02
          0                 3           2             4    6     1       0.1789022649E+00       4    6    1         0.9486931509E+01      0.2134702040E+02
          0                 4           2             5    8     1      -0.2201553802E+00       5    8    1        -0.1289430142E+02      0.2505631552E+02
          0                 5           2             4    8     1      -0.9067541492E-01       4    8    1        -0.4962737089E+01      0.1114892187E+02
          0                 6           2             4    7     1      -0.4626098162E-01       4    8    1        -0.2491026450E+01      0.5519350185E+01
          0                 7           2             4    7     1      -0.2372089705E-01       4    7    1        -0.1275251067E+01      0.2773586289E+01
          0                 8           2             4    7     1      -0.1215106508E-01       4    7    1        -0.6538066658E+00      0.1396375263E+01
          0                 9           2             4    7     1      -0.6218635871E-02       4    7    1        -0.3348678067E+00      0.7032481364E+00
          0                10           2             4    7     1      -0.3179823865E-02       4    7    1        -0.1713557466E+00      0.3542371364E+00
                                                   Max.-Head-Change                         Max.-Flux-Residual
  Residual-Control   Outer-Iter.   Inner-Iter.     Column Row Layer    Maximum-Head-Change  Column Row Layer    Maximum-Flux-Residual          L2-NORM 
          0                11           2             4    7     1      -0.1624671685E-02       4    7    1        -0.8761019027E-01      0.1784643386E+00
          0                12           2             4    7     1      -0.8294837257E-03       4    7    1        -0.4475776902E-01      0.8992418755E-01
          0                13           2             4    7     1      -0.4232068648E-03       4    7    1        -0.2284887978E-01      0.4531733480E-01
          0                14           2             4    7     1      -0.2157848483E-03       4    7    1        -0.1165645982E-01      0.2284071829E-01
          0                15           1             4    7     1      -0.1099592101E-03       4    7    1        -0.5942843594E-02      0.1151350833E-01
          0                16           1             4    7     1      -0.5600181120E-04       4    7    1        -0.3028074814E-02      0.5804347496E-02

    ------------------------------------------------
       NWT REQUIRED           16 OUTER ITERATIONS 
       AND A TOTAL OF         30 INNER ITERATIONS.
    ------------------------------------------------

 NO OUTPUT CONTROL FOR STRESS PERIOD   32   TIME STEP   29
 
 SOLVING FOR HEAD 
                                                   Max.-Head-Change                         Max.-Flux-Residual
  Residual-Control   Outer-Iter.   Inner-Iter.     Column Row Layer    Maximum-Head-Change  Column Row Layer    Maximum-Flux-Residual          L2-NORM 
          0                 1           2             4    6     1       0.6067077000E+00       4    6    1         0.3220792542E+02      0.7004123071E+02
          0                 2           2             5    8     1      -0.1821137870E+00       5    8    1        -0.1035057257E+02      0.1085948492E+02
          0                 3           2             4    7     1       0.1764355638E+00       4    6    1         0.9323922447E+01      0.2111351684E+02
          0                 4           2             5    8     1      -0.2199179566E+00       5    8    1        -0.1287943520E+02      0.2517224227E+02
          0                 5           2             4    8     1      -0.9154242286E-01       4    8    1        -0.4997933165E+01      0.1143408030E+02
          0                 6           2             4    7     1      -0.4645766897E-01       4    8    1        -0.2514973259E+01      0.5806628131E+01
          0                 7           2             4    7     1      -0.2383819422E-01       4    7    1        -0.1280744755E+01      0.2950818258E+01
          0                 8           2             4    7     1      -0.1222277356E-01       4    7    1        -0.6570965082E+00      0.1500524877E+01
          0                 9           2             4    7     1      -0.6262916794E-02       4    7    1        -0.3368838070E+00      0.7635069513E+00
          0                10           2             4    7     1      -0.3207163870E-02       4    7    1        -0.1726017244E+00      0.3887222802E+00
                                                   Max.-Head-Change                         Max.-Flux-Residual
  Residual-Control   Outer-Iter.   Inner-Iter.     Column Row Layer    Maximum-Head-Change  Column Row Layer    Maximum-Flux-Residual          L2-NORM 
          0                11           2             4    7     1      -0.1641451185E-02       4    7    1        -0.8837938508E-01      0.1980207833E+00
          0                12           2             4    7     1      -0.8396911530E-03       4    7    1        -0.4522952801E-01      0.1009289837E+00
          0                13           2             4    7     1      -0.4293549579E-03       4    7    1        -0.2313559023E-01      0.5146882711E-01
          0                14           2             4    7     1      -0.2194509429E-03       4    7    1        -0.1182896756E-01      0.2625946571E-01
          0                15           1             4    7     1      -0.1121242873E-03       4    7    1        -0.6045599723E-02      0.1340390189E-01
          0                16           1             4    7     1      -0.5726892272E-04       4    7    1        -0.3088696655E-02      0.6844966025E-02

    ------------------------------------------------
       NWT REQUIRED           16 OUTER ITERATIONS 
       AND A TOTAL OF         30 INNER ITERATIONS.
    ------------------------------------------------

 NO OUTPUT CONTROL FOR STRESS PERIOD   32   TIME STEP   30



 STREAM LISTING     PERIOD     32   STEP       30

 LAYER ROW COL. STREAM  RCH.  FLOW INTO     FLOW TO   FLOW OUT OF   OVRLND.     DIRECT     STREAM       STREAM     STREAM     STREAM   STREAMBED  STREAMBED
                SEG.NO.  NO.  STRM. RCH.    AQUIFER    STRM. RCH.    RUNOFF     PRECIP       ET          HEAD       DEPTH      WIDTH   CONDCTNC.   GRADIENT

   1    1    1     1     1    5.6248E+01  3.5874E-01   5.5890E+01  0.000E+00  0.000E+00  0.000E+00  1.09453E+03  1.479E+00  1.780E+01  8.009E-02  1.493E+00
   1    2    2     1     2    5.5890E+01  5.5549E-01   5.5334E+01  0.000E+00  0.000E+00  0.000E+00  1.08953E+03  1.473E+00  1.774E+01  1.242E-01  1.491E+00
   1    3    3     1     3    5.5334E+01  4.7367E-01   5.4860E+01  0.000E+00  0.000E+00  0.000E+00  1.08389E+03  1.467E+00  1.767E+01  1.060E-01  1.489E+00
   1    3    4     1     4    5.4860E+01  4.3612E-01   5.4424E+01  0.000E+00  0.000E+00  0.000E+00  1.07887E+03  1.461E+00  1.762E+01  9.777E-02  1.487E+00
   1    4    5     2     1    5.2424E+01  3.8056E-01   5.2044E+01  0.000E+00  0.000E+00  0.000E+00  1.07381E+03  1.879E+00  1.200E+01  7.800E-02  1.626E+00
   1    5    6     2     2    5.2044E+01  2.9230E-01   5.1751E+01  0.000E+00  0.000E+00  0.000E+00  1.06838E+03  1.872E+00  1.200E+01  6.000E-02  1.624E+00
   1    6    6     2     3    5.1751E+01  2.9192E-01   5.1459E+01  0.000E+00  0.000E+00  0.000E+00  1.06366E+03  1.865E+00  1.200E+01  6.000E-02  1.622E+00
   1    7    6     2     4    5.1459E+01  2.9154E-01   5.1168E+01  0.000E+00  0.000E+00  0.000E+00  1.05893E+03  1.859E+00  1.200E+01  6.000E-02  1.620E+00
   1    8    6     2     5    5.1168E+01  2.9116E-01   5.0877E+01  0.000E+00  0.000E+00  0.000E+00  1.05421E+03  1.853E+00  1.200E+01  6.000E-02  1.618E+00
   1    3    5     3     1    2.0000E+00  2.8252E-01   1.7175E+00  0.000E+00  0.000E+00  0.000E+00  1.07555E+03  1.909E+00  9.636E+00  7.227E-02  1.955E+00
   1    3    6     3     2    1.7175E+00  2.4905E-01   1.4684E+00  0.000E+00  0.000E+00  0.000E+00  1.07264E+03  1.727E+00  8.909E+00  6.682E-02  1.864E+00
   1    3    7     3     3    1.4684E+00  1.9718E-01   1.2712E+00  0.000E+00  0.000E+00  0.000E+00  1.06987E+03  1.555E+00  8.218E+00  5.547E-02  1.777E+00
   1    4    8     3     4    1.2712E+00  2.2567E-01   1.0456E+00  0.000E+00  0.000E+00  0.000E+00  1.06682E+03  1.364E+00  7.455E+00  6.709E-02  1.682E+00
   1    5    8     3     5    1.0456E+00  1.5790E-01   8.8768E-01  0.000E+00  0.000E+00  0.000E+00  1.06362E+03  1.164E+00  6.655E+00  4.991E-02  1.582E+00
   1    6    8     3     6    8.8768E-01  5.5980E-02   8.3170E-01  0.000E+00  0.000E+00  0.000E+00  1.06158E+03  1.036E+00  6.145E+00  1.844E-02  1.518E+00
   1    5   10     4     1    1.0000E+01  9.0919E-02   9.9091E+00  0.000E+00  0.000E+00  0.000E+00  1.07836E+03  6.368E-01  1.000E+01  2.500E-02  1.212E+00
   1    5    9     4     2    9.9091E+00  1.8158E-01   9.7275E+00  0.000E+00  0.000E+00  0.000E+00  1.07154E+03  6.315E-01  1.000E+01  5.000E-02  1.211E+00
   1    6    8     4     3    9.7275E+00  1.2689E-01   9.6006E+00  0.000E+00  0.000E+00  0.000E+00  1.06381E+03  6.256E-01  1.000E+01  3.500E-02  1.209E+00
   1    6    8     5     1    1.0432E+01  2.2686E-01   1.0205E+01  0.000E+00  0.000E+00  0.000E+00  1.05868E+03  6.790E-01  1.542E+01  6.166E-02  1.226E+00
   1    7    7     5     2    1.0205E+01  2.7894E-01   9.9265E+00  0.000E+00  0.000E+00  0.000E+00  1.05417E+03  6.732E-01  1.519E+01  7.594E-02  1.224E+00
   1    8    7     5     3    9.9265E+00  1.9221E-01   9.7343E+00  0.000E+00  0.000E+00  0.000E+00  1.04992E+03  6.676E-01  1.497E+01  5.241E-02  1.223E+00
   1    8    6     5     4    9.7343E+00  1.3577E-01   9.5985E+00  0.000E+00  0.000E+00  0.000E+00  1.04691E+03  6.637E-01  1.482E+01  3.706E-02  1.221E+00
   1    9    6     6     1    9.5985E+00  2.2097E-01   9.3776E+00  0.000E+00  0.000E+00  0.000E+00  1.04341E+03  6.828E-01  1.200E+01  6.000E-02  1.228E+00
   1   10    7     6     2    9.3776E+00  2.2039E-01   9.1572E+00  0.000E+00  0.000E+00  0.000E+00  1.03885E+03  6.732E-01  1.200E+01  6.000E-02  1.224E+00
   1   11    7     6     3    9.1572E+00  2.1981E-01   8.9374E+00  0.000E+00  0.000E+00  0.000E+00  1.03430E+03  6.636E-01  1.200E+01  6.000E-02  1.221E+00
   1   12    7     6     4    8.9374E+00  2.1923E-01   8.7181E+00  0.000E+00  0.000E+00  0.000E+00  1.02974E+03  6.539E-01  1.200E+01  6.000E-02  1.218E+00
   1   13    7     6     5    8.7181E+00 -1.1201E-01   8.8301E+00  0.000E+00  0.000E+00  0.000E+00  1.02656E+03  6.515E-01  1.200E+01  2.400E-01 -1.556E-01
   1   14    9     7     1    1.5000E+02  1.3477E+00   1.4865E+02  0.000E+00  0.000E+00  0.000E+00  1.03987E+03  2.288E+00  5.529E+01  5.593E-01  8.032E-01
   1   13    8     7     2    1.4865E+02  1.8519E+00   1.4680E+02  0.000E+00  0.000E+00  0.000E+00  1.03478E+03  2.279E+00  5.526E+01  6.148E-01  1.004E+00
   1   13    7     7     3    1.4680E+02  1.4868E+00   1.4531E+02  0.000E+00  0.000E+00  0.000E+00  1.02969E+03  2.270E+00  5.522E+01  5.584E-01  8.874E-01
   1   13    6     8     1    1.5414E+02  8.3887E-01   1.5330E+02  0.000E+00  0.000E+00  0.000E+00  1.02472E+03  2.843E+00  4.122E+01  4.201E-01  6.657E-01
   1   13    5     8     2    1.5330E+02  1.1067E-01   1.5319E+02  0.000E+00  0.000E+00  0.000E+00  1.01846E+03  2.840E+00  4.117E+01  4.196E-01  8.793E-02
   1   13    4     8     3    1.5319E+02 -2.6510E+00   1.5585E+02  0.000E+00  0.000E+00  0.000E+00  1.01222E+03  2.848E+00  4.130E+01  4.209E+00 -2.100E-01
   1   13    3     8     4    1.5585E+02 -3.7698E+00   1.5962E+02  0.000E+00  0.000E+00  0.000E+00  1.00600E+03  2.870E+00  4.162E+01  4.241E+00 -2.963E-01
   1   13    2     8     5    1.5962E+02 -2.6642E+00   1.6228E+02  0.000E+00  0.000E+00  0.000E+00  9.99767E+02  2.892E+00  4.194E+01  4.274E+00 -2.078E-01
   1   13    1     8     6    1.6228E+02 -2.0614E+00   1.6434E+02  0.000E+00  0.000E+00  0.000E+00  9.94783E+02  2.908E+00  4.217E+01  2.578E+00 -2.665E-01
   1    8    6     9     1    5.0877E+01  0.0000E+00   5.0877E+01  0.000E+00  0.000E+00  0.000E+00  1.08476E+03  6.014E+00  4.000E+00  0.000E+00  3.005E+00
   1    8    5     9     2    5.0877E+01  0.0000E+00   5.0877E+01  0.000E+00  0.000E+00  0.000E+00  1.08426E+03  6.014E+00  4.000E+00  0.000E+00  3.005E+00





UNSATURATED ZONE PACKAGE VOLUMETRIC BUDGET FOR  TIME STEP    30 STRESS PERIOD   32
  ------------------------------------------------------------------------------



     CUMULATIVE VOLUMES      L**3       RATES FOR THIS TIME STEP      L**3/T
     ------------------                 ------------------------

           IN:                                      IN:
           ---                                      ---
        INFILTRATION =  3971041629.2468          INFILTRATION =         169.3186

          OUT:                                     OUT:
          ----                                     ----
              UZF ET =  1119312100.1571                UZF ET =          60.8175
        UZF RECHARGE =  2246158401.7290          UZF RECHARGE =         219.0117

            IN - OUT =   605571127.3607              IN - OUT =        -110.5105

          STORAGE:                                 STORAGE:
          --------                                 --------
      STORAGE CHANGE =   605563632.7727        STORAGE CHANGE =        -110.5105

 PERCENT DISCREPANCY IS DIFFERENCE BETWEEN IN-OUT MINUS CHANGE IN STORAGE
 DIVIDED BY THE AVERAGE OF IN AND OUT TIMES 100

 PERCENT DISCREPANCY =           0.00     PERCENT DISCREPANCY =           0.00






1
  VOLUMETRIC BUDGET FOR AGRICULTURAL FIELDS AT  END OF TIME STEP   30, STRESS PERIOD  32
  ------------------------------------------------------------------------------

     CUMULATIVE VOLUMES      L**3       RATES FOR THIS TIME STEP      L**3/T
     ------------------                 ------------------------

           IN:                                      IN:
           ---                                      ---
           AG WELLS      =  2501744640.0000             AG WELLS      =         117.5933
      DIVERSION SEGMENTS =  1400102400.0000        DIVERSION SEGMENTS =          50.8768
           GW IRRIGATION =           0.0000             GW IRRIGATION =           0.0000
           SW IRRIGATION =           0.0000             SW IRRIGATION =           0.0000
        SYSTEM LOSSES GW =           0.0000          SYSTEM LOSSES GW =           0.0000
        SYSTEM LOSSES SW =           0.0000          SYSTEM LOSSES SW =           0.0000

                TOTAL IN =  3901847040.0000                  TOTAL IN =         168.4701

          OUT:                                     OUT:
          ----                                     ----
           AG WELLS      =           0.0000             AG WELLS      =           0.0000
      DIVERSION SEGMENTS =           0.0000        DIVERSION SEGMENTS =           0.0000
           GW IRRIGATION =  2501744640.0000             GW IRRIGATION =         117.5933
           SW IRRIGATION =  1400130176.0000             SW IRRIGATION =          50.8778
        SYSTEM LOSSES GW =           0.0000          SYSTEM LOSSES GW =           0.0000
        SYSTEM LOSSES SW =           0.0000          SYSTEM LOSSES SW =           0.0000

               TOTAL OUT =  3901874688.0000                 TOTAL OUT =         168.4711

                IN - OUT =      -27648.0000                  IN - OUT =      -1.0071E-03

     PERCENT DISCREPANCY =          -0.00         PERCENT DISCREPANCY =          -0.00



1
  VOLUMETRIC BUDGET FOR ENTIRE MODEL AT END OF TIME STEP   30, STRESS PERIOD  32
  ------------------------------------------------------------------------------

     CUMULATIVE VOLUMES      L**3       RATES FOR THIS TIME STEP      L**3/T
     ------------------                 ------------------------

           IN:                                      IN:
           ---                                      ---
             STORAGE     =  2501165824.0000               STORAGE     =          11.3513
       CONSTANT HEAD     =           0.0000         CONSTANT HEAD     =           0.0000
     HEAD DEP BOUNDS     =    23351434.0000       HEAD DEP BOUNDS     =           0.2866
      STREAM LEAKAGE     =   978839616.0000        STREAM LEAKAGE     =          12.2893
        UZF RECHARGE     =  2246157568.0000          UZF RECHARGE     =         219.0117
               GW ET     =           0.0000                 GW ET     =           0.0000
     SURFACE LEAKAGE     =           0.0000       SURFACE LEAKAGE     =           0.0000
           AG WELLS      =           0.0000             AG WELLS      =           0.0000

                TOTAL IN =  5749514240.0000                  TOTAL IN =         242.9389

          OUT:                                     OUT:
          ----                                     ----
             STORAGE     =  2345651712.0000               STORAGE     =         113.8074
       CONSTANT HEAD     =           0.0000         CONSTANT HEAD     =           0.0000
     HEAD DEP BOUNDS     =    23638902.0000       HEAD DEP BOUNDS     =           0.2881
      STREAM LEAKAGE     =   878355072.0000        STREAM LEAKAGE     =          11.2585
        UZF RECHARGE     =           0.0000          UZF RECHARGE     =           0.0000
               GW ET     =      151061.6094                 GW ET     =           0.0000
     SURFACE LEAKAGE     =           0.0000       SURFACE LEAKAGE     =           0.0000
           AG WELLS      =  2501744640.0000             AG WELLS      =         117.5933

               TOTAL OUT =  5749541376.0000                 TOTAL OUT =         242.9474

                IN - OUT =      -27136.0000                  IN - OUT =      -8.5297E-03

     PERCENT DISCREPANCY =          -0.00         PERCENT DISCREPANCY =          -0.00






         TIME SUMMARY AT END OF TIME STEP   30 IN STRESS PERIOD   32
                    SECONDS     MINUTES      HOURS       DAYS        YEARS
                    -----------------------------------------------------------
   TIME STEP LENGTH  87667.      1461.1      24.352      1.0147     2.77799E-03
 STRESS PERIOD TIME 2.63000E+06  43833.      730.56      30.440     8.33397E-02
         TOTAL TIME 8.16164E+07 1.36027E+06  22671.      944.63      2.5863    
1
1
                            STRESS PERIOD NO.   33, LENGTH =   2630000.    
                            -----------------------------------------------

                              NUMBER OF TIME STEPS =    30

                               MULTIPLIER FOR DELT =     1.000

                            INITIAL TIME STEP SIZE =   87666.66    

 REUSING NON-PARAMETER GHB CELLS FROM LAST STRESS PERIOD

      2 GHB CELLS

 REUSING STREAM SEGMENT DATA FROM LAST STRESS PERIOD



            AREAL INFILTRATION RATE
 READING ON UNIT   19 WITH FORMAT: (FREE)              

            1           2           3           4           5           6           7           8           9          10
 ........................................................................................................................
   1   1.0000E-10  2.0000E-10   0.000       0.000       0.000       0.000       0.000       0.000       0.000       0.000    
   2   2.0000E-10  1.0000E-10  2.0000E-10   0.000       0.000      8.0000E-10  8.0000E-10  5.0000E-10   0.000       0.000    
   3    0.000      5.0000E-10  1.0000E-10  1.0000E-10  8.0000E-10  8.0000E-10  5.0000E-10  5.0000E-10   0.000       0.000    
   4   8.0000E-10  5.0000E-10  1.0000E-10  1.0000E-10  1.0000E-10  1.0000E-10  1.0000E-10  1.0000E-10  2.0000E-10   0.000    
   5   8.0000E-10  5.0000E-10  1.0000E-10  1.0000E-10  1.0000E-10  1.0000E-10  1.0000E-10  1.0000E-10  1.0000E-10  1.0000E-10
   6   8.0000E-10  5.0000E-10  5.0000E-10  2.0000E-10  2.0000E-10  1.0000E-10  1.0000E-10  1.0000E-10  1.0000E-10  5.0000E-10
   7   8.0000E-10  5.0000E-10  5.0000E-10  2.0000E-10  2.0000E-10  1.0000E-10  1.0000E-10  2.0000E-10  2.0000E-10   0.000    
   8    0.000      5.0000E-10  5.0000E-10  2.0000E-10  2.0000E-10  1.0000E-10  1.0000E-10  2.0000E-10  5.0000E-10   0.000    
   9    0.000      5.0000E-10  5.0000E-10  2.0000E-10  2.0000E-10  1.0000E-10  1.0000E-10  2.0000E-10  5.0000E-10   0.000    
  10    0.000      5.0000E-10  5.0000E-10  2.0000E-10  2.0000E-10  1.0000E-10  1.0000E-10  2.0000E-10  5.0000E-10  8.0000E-10
  11    0.000      1.0000E-10  1.0000E-10  1.0000E-10  1.0000E-10  1.0000E-10  1.0000E-10  2.0000E-10  5.0000E-10   0.000    
  12   1.0000E-10  1.0000E-10  1.0000E-10  1.0000E-10  1.0000E-10  1.0000E-10  1.0000E-10  1.0000E-10  2.0000E-10   0.000    
  13   1.0000E-10  1.0000E-10  2.0000E-10  2.0000E-10  2.0000E-10  2.0000E-10  2.0000E-10  1.0000E-10  1.0000E-10   0.000    
  14    0.000      2.0000E-10  5.0000E-10  5.0000E-10  5.0000E-10  5.0000E-10  5.0000E-10  2.0000E-10  1.0000E-10   0.000    
  15    0.000       0.000      8.0000E-10  8.0000E-10  8.0000E-10  8.0000E-10   0.000       0.000       0.000       0.000    

                  ET RATE =  3.250000E-07

 USING ET EXTINCTION DEPTH FROM PREVIOUS STRESS PERIOD. CURRENT PERIOD IS:      33

 USING EXTINCTION WATER CONTENT FROM PREVIOUS STRESS PERIOD. CURRENT PERIOD IS:      33

 USING AIR ENTRY PRESSURE FROM PREVIOUS STRESS PERIOD. CURRENT PERIOD IS:      33

 USING ROOT PRESSURE HEAD FROM PREVIOUS STRESS PERIOD. CURRENT PERIOD IS:      33

 USING ROOT ACTIVITY FROM PREVIOUS STRESS PERIOD. CURRENT PERIOD IS:      33

 PROCESSING AG STRESS PERIOD DATA

 READING AG STRESS PERIOD DATA

 READING IRRIGATION SEGMENT

 READING IRRIGATION WELL

 READING SUPPLEMENTAL WELL

 END PROCESSING AG STRESS PERIOD DATA OPTIONS
 
 SOLVING FOR HEAD 
                                                   Max.-Head-Change                         Max.-Flux-Residual
  Residual-Control   Outer-Iter.   Inner-Iter.     Column Row Layer    Maximum-Head-Change  Column Row Layer    Maximum-Flux-Residual          L2-NORM 
          0                 1           2             4    6     1       0.5947234340E+00       4    6    1         0.3155841256E+02      0.6913507176E+02
          0                 2           2             4    7     1       0.2951760162E+00       4    6    1         0.1547514470E+02      0.3324573266E+02
          0                 3           2             4    7     1       0.1470331041E+00       4    7    1         0.7702106740E+01      0.1612298611E+02
          0                 4           2             4    7     1       0.7316900116E-01       4    7    1         0.3835927215E+01      0.7895901615E+01
          0                 5           2             4    7     1       0.3637845773E-01       4    7    1         0.1908591646E+01      0.3868531202E+01
          0                 6           2             4    7     1       0.1807160710E-01       4    7    1         0.9487793257E+00      0.1895613542E+01
          0                 7           2             4    7     1       0.8970424547E-02       4    7    1         0.4712568235E+00      0.9290024848E+00
          0                 8           2             4    7     1       0.4449577833E-02       4    7    1         0.2338936243E+00      0.4553492263E+00
          0                 9           2             4    7     1       0.2205655320E-02       4    7    1         0.1160039798E+00      0.2232174476E+00
          0                10           2             4    7     1       0.1092674422E-02       4    7    1         0.5749687411E-01      0.1094365620E+00
                                                   Max.-Head-Change                         Max.-Flux-Residual
  Residual-Control   Outer-Iter.   Inner-Iter.     Column Row Layer    Maximum-Head-Change  Column Row Layer    Maximum-Flux-Residual          L2-NORM 
          0                11           2             4    7     1       0.5410003427E-03       4    7    1         0.2848087629E-01      0.5365902871E-01
          0                12           2             4    7     1       0.2677167581E-03       4    7    1         0.1410000476E-01      0.2631267109E-01
          0                13           2             4    7     1       0.1324161404E-03       4    7    1         0.6976848932E-02      0.1290401693E-01
          0                14           1             4    7     1       0.6546487984E-04       4    7    1         0.3450558358E-02      0.6328768649E-02

    ------------------------------------------------
       NWT REQUIRED           14 OUTER ITERATIONS 
       AND A TOTAL OF         27 INNER ITERATIONS.
    ------------------------------------------------

 NO OUTPUT CONTROL FOR STRESS PERIOD   33   TIME STEP    1
 
 SOLVING FOR HEAD 
                                                   Max.-Head-Change                         Max.-Flux-Residual
  Residual-Control   Outer-Iter.   Inner-Iter.     Column Row Layer    Maximum-Head-Change  Column Row Layer    Maximum-Flux-Residual          L2-NORM 
          0                 1           2             4    7     1       0.5817807485E+00       4    7    1         0.3046687187E+02      0.6648676457E+02
          0                 2           2             4    7     1       0.2884880890E+00       4    7    1         0.1517873936E+02      0.3007404310E+02
          0                 3           2             4    7     1       0.8437775840E-01       4    7    1         0.4515754544E+01      0.8283814046E+01
          0                 4           2             4    7     1       0.9542671967E-01       4    7    1         0.5027457134E+01      0.1023481554E+02
          0                 5           2             4    7     1       0.4868553546E-01       4    7    1         0.2576387105E+01      0.5103908393E+01
          0                 6           2             4    7     1       0.1693582847E-01       4    7    1         0.9032963840E+00      0.1722666061E+01
          0                 7           2             4    7     1      -0.2251383277E+00       4    8    1        -0.1256761645E+02      0.2996865708E+02
          0                 8           2             5    8     1      -0.5675220838E-01       5    8    1        -0.3355662366E+01      0.6914282336E+01
          0                 9           2             4    7     1      -0.9918842592E-01       5    8    1        -0.5544544694E+01      0.1253866292E+02
          0                10           2             4    7     1      -0.5032225086E-01       4    7    1        -0.2727816517E+01      0.5819260465E+01
                                                   Max.-Head-Change                         Max.-Flux-Residual
  Residual-Control   Outer-Iter.   Inner-Iter.     Column Row Layer    Maximum-Head-Change  Column Row Layer    Maximum-Flux-Residual          L2-NORM 
          0                11           2             4    7     1      -0.2546501478E-01       4    7    1        -0.1383974487E+01      0.2741034180E+01
          0                12           2             4    7     1      -0.1287145237E-01       4    7    1        -0.7004474589E+00      0.1363862739E+01
          0                13           2             4    7     1      -0.6501696093E-02       4    7    1        -0.3540592494E+00      0.6839066734E+00
          0                14           2             4    7     1      -0.3282787657E-02       4    7    1        -0.1788427414E+00      0.3433052422E+00
          0                15           2             4    7     1      -0.1657100913E-02       4    7    1        -0.9029733027E-01      0.1724559011E+00
          0                16           2             4    7     1      -0.8362933026E-03       4    7    1        -0.4557936989E-01      0.8662614143E-01
          0                17           2             4    7     1      -0.4219708970E-03       4    7    1        -0.2300180552E-01      0.4351533186E-01
          0                18           2             4    7     1      -0.2128767074E-03       4    7    1        -0.1160564754E-01      0.2186008775E-01
          0                19           1             4    7     1      -0.1073743893E-03       4    7    1        -0.5854619247E-02      0.1098190121E-01
          0                20           1             4    7     1      -0.5415072232E-04       4    7    1        -0.2952943246E-02      0.5517189667E-02

    ------------------------------------------------
       NWT REQUIRED           20 OUTER ITERATIONS 
       AND A TOTAL OF         38 INNER ITERATIONS.
    ------------------------------------------------

 NO OUTPUT CONTROL FOR STRESS PERIOD   33   TIME STEP    2
 
 SOLVING FOR HEAD 
                                                   Max.-Head-Change                         Max.-Flux-Residual
  Residual-Control   Outer-Iter.   Inner-Iter.     Column Row Layer    Maximum-Head-Change  Column Row Layer    Maximum-Flux-Residual          L2-NORM 
          0                 1           2             4    7     1       0.5649348867E+00       4    7    1         0.2999159372E+02      0.5627523626E+02
          0                 2           2             4    7     1       0.1182149640E+00       4    7    1         0.6448812236E+01      0.1100901408E+02
          0                 3           2             4    7     1       0.1859146188E+00       4    7    1         0.9832907908E+01      0.1943387084E+02
          0                 4           2             4    8     1      -0.1210440057E+00       4    8    1        -0.7023910395E+01      0.1198779334E+02
          0                 5           2             5    7     1      -0.4967632806E-01       5    7    1        -0.2885869910E+01      0.5293197119E+01
          0                 6           2             5    7     1      -0.2616586828E-01       5    7    1        -0.1521355911E+01      0.2752427095E+01
          0                 7           2             5    7     1      -0.1377007192E-01       5    7    1        -0.8012379993E+00      0.1432485072E+01
          0                 8           2             5    7     1      -0.7240896799E-02       5    7    1        -0.4216116282E+00      0.7461142829E+00
          0                 9           2             5    8     1      -0.3411750734E-02       5    8    1        -0.2003019764E+00      0.3449666082E+00
          0                10           2             5    8     1      -0.1764083297E-02       5    8    1        -0.1042068015E+00      0.1668131258E+00
                                                   Max.-Head-Change                         Max.-Flux-Residual
  Residual-Control   Outer-Iter.   Inner-Iter.     Column Row Layer    Maximum-Head-Change  Column Row Layer    Maximum-Flux-Residual          L2-NORM 
          0                11           2             5    8     1      -0.9102853910E-03       5    8    1        -0.5387209989E-01      0.8499226292E-01
          0                12           2             5    8     1      -0.4694866054E-03       5    8    1        -0.2779674732E-01      0.4361122782E-01
          0                13           2             5    8     1      -0.2421488600E-03       5    8    1        -0.1433595459E-01      0.2241696038E-01
          0                14           1             5    8     1      -0.1249198043E-03       5    8    1        -0.7393976522E-02      0.1153683564E-01
          0                15           1             5    8     1      -0.6446065773E-04       5    8    1        -0.3814353349E-02      0.5944279424E-02

    ------------------------------------------------
       NWT REQUIRED           15 OUTER ITERATIONS 
       AND A TOTAL OF         28 INNER ITERATIONS.
    ------------------------------------------------

 NO OUTPUT CONTROL FOR STRESS PERIOD   33   TIME STEP    3
 
 SOLVING FOR HEAD 
                                                   Max.-Head-Change                         Max.-Flux-Residual
  Residual-Control   Outer-Iter.   Inner-Iter.     Column Row Layer    Maximum-Head-Change  Column Row Layer    Maximum-Flux-Residual          L2-NORM 
          0                 1           2             4    7     1       0.5431284531E+00       4    7    1         0.2868491659E+02      0.5298739397E+02
          0                 2           2             5    6     1      -0.1052760867E+00       5    6    1        -0.6074023038E+01      0.9885419794E+01
          0                 3           2             4    6     1       0.1749923560E+00       4    6    1         0.9373007265E+01      0.1699628993E+02
          0                 4           2             4    8     1      -0.1253640001E+00       4    8    1        -0.7234063788E+01      0.1456726049E+02
          0                 5           2             5    7     1      -0.4497594828E-01       5    7    1        -0.2618661547E+01      0.4778676814E+01
          0                 6           2             5    7     1      -0.2334930149E-01       5    7    1        -0.1376363903E+01      0.2118425780E+01
          0                 7           2             5    7     1      -0.1206100068E-01       5    7    1        -0.7142480572E+00      0.1045248831E+01
          0                 8           2             5    7     1      -0.6216387848E-02       5    7    1        -0.3688642391E+00      0.5239161670E+00
          0                 9           2             5    7     1      -0.3200179093E-02       5    7    1        -0.1900906531E+00      0.2632951486E+00
          0                10           2             5    7     1      -0.1646100402E-02       5    7    1        -0.9784734786E-01      0.1324736214E+00
                                                   Max.-Head-Change                         Max.-Flux-Residual
  Residual-Control   Outer-Iter.   Inner-Iter.     Column Row Layer    Maximum-Head-Change  Column Row Layer    Maximum-Flux-Residual          L2-NORM 
          0                11           2             5    7     1      -0.8461631240E-03       5    7    1        -0.5032563477E-01      0.6672092427E-01
          0                12           2             5    7     1      -0.4347141221E-03       5    7    1        -0.2586716376E-01      0.3363754498E-01
          0                13           2             5    7     1      -0.2232177576E-03       5    7    1        -0.1328809961E-01      0.1697440804E-01
          0                14           2             5    7     1      -0.1145637465E-03       5    7    1        -0.6822671245E-02      0.8573293487E-02
          0                15           1             5    7     1      -0.5877255918E-04       5    7    1        -0.3501397274E-02      0.4333680868E-02

    ------------------------------------------------
       NWT REQUIRED           15 OUTER ITERATIONS 
       AND A TOTAL OF         29 INNER ITERATIONS.
    ------------------------------------------------

 NO OUTPUT CONTROL FOR STRESS PERIOD   33   TIME STEP    4
 
 SOLVING FOR HEAD 
                                                   Max.-Head-Change                         Max.-Flux-Residual
  Residual-Control   Outer-Iter.   Inner-Iter.     Column Row Layer    Maximum-Head-Change  Column Row Layer    Maximum-Flux-Residual          L2-NORM 
          0                 1           2             4    6     1       0.5053223854E+00       4    6    1         0.2702979215E+02      0.4757403460E+02
          0                 2           2             4    8     1      -0.1134959817E+00       4    8    1        -0.6291202709E+01      0.1017178623E+02
          0                 3           2             4    6     1       0.1684255601E+00       4    6    1         0.9022267889E+01      0.1650381031E+02
          0                 4           2             4    8     1      -0.1260770356E+00       4    8    1        -0.7268969067E+01      0.1429332145E+02
          0                 5           2             5    6     1      -0.5071225354E-01       5    6    1        -0.2978171997E+01      0.5268845281E+01
          0                 6           2             5    7     1      -0.2256653445E-01       5    7    1        -0.1245916700E+01      0.2254153859E+01
          0                 7           2             5    7     1      -0.1107302306E-01       5    7    1        -0.6176042590E+00      0.9912753906E+00
          0                 8           2             5    7     1      -0.5412518387E-02       5    7    1        -0.3029629178E+00      0.4780390816E+00
          0                 9           2             5    7     1      -0.2642138103E-02       5    7    1        -0.1480732137E+00      0.2334888039E+00
          0                10           2             5    7     1      -0.1289213043E-02       5    7    1        -0.7227924918E-01      0.1141958670E+00
                                                   Max.-Head-Change                         Max.-Flux-Residual
  Residual-Control   Outer-Iter.   Inner-Iter.     Column Row Layer    Maximum-Head-Change  Column Row Layer    Maximum-Flux-Residual          L2-NORM 
          0                11           2             5    7     1      -0.6289941256E-03       5    7    1        -0.3526740501E-01      0.5585446042E-01
          0                12           2             5    7     1      -0.3068816088E-03       5    7    1        -0.1720638025E-01      0.2731803309E-01
          0                13           2             5    7     1      -0.1497320377E-03       5    7    1        -0.8394774858E-02      0.1336077593E-01
          0                14           1             5    7     1      -0.7306068696E-04       5    7    1        -0.4095892233E-02      0.6534475786E-02

    ------------------------------------------------
       NWT REQUIRED           14 OUTER ITERATIONS 
       AND A TOTAL OF         27 INNER ITERATIONS.
    ------------------------------------------------

 NO OUTPUT CONTROL FOR STRESS PERIOD   33   TIME STEP    5
 
 SOLVING FOR HEAD 
                                                   Max.-Head-Change                         Max.-Flux-Residual
  Residual-Control   Outer-Iter.   Inner-Iter.     Column Row Layer    Maximum-Head-Change  Column Row Layer    Maximum-Flux-Residual          L2-NORM 
          0                 1           2             4    6     1       0.4794544237E+00       4    6    1         0.2561242669E+02      0.4609017767E+02
          0                 2           2             4    7     1      -0.1101393670E+00       4    7    1        -0.6091629926E+01      0.8685672818E+01
          0                 3           2             5    7     1       0.1276877349E+00       5    7    1         0.6778359762E+01      0.1487840305E+02
          0                 4           2             4    7     1      -0.1270974659E+00       4    7    1        -0.7254112287E+01      0.1586919889E+02
          0                 5           2             4    8     1      -0.5338078213E-01       4    8    1        -0.3116124917E+01      0.5136653404E+01
          0                 6           2             5    6     1      -0.2378260965E-01       5    6    1        -0.1409380830E+01      0.1906070526E+01
          0                 7           2             5    6     1      -0.1224618521E-01       5    6    1        -0.7272122673E+00      0.8930245040E+00
          0                 8           2             5    6     1      -0.6298628514E-02       5    6    1        -0.3744096809E+00      0.4481106925E+00
          0                 9           2             5    6     1      -0.3237247599E-02       5    6    1        -0.1925526377E+00      0.2271328415E+00
          0                10           2             5    6     1      -0.1662895005E-02       5    6    1        -0.9895608152E-01      0.1153336921E+00
                                                   Max.-Head-Change                         Max.-Flux-Residual
  Residual-Control   Outer-Iter.   Inner-Iter.     Column Row Layer    Maximum-Head-Change  Column Row Layer    Maximum-Flux-Residual          L2-NORM 
          0                11           2             5    6     1      -0.8537850634E-03       5    6    1        -0.5082739269E-01      0.5860747213E-01
          0                12           2             5    6     1      -0.4381759714E-03       5    6    1        -0.2609458027E-01      0.2979863449E-01
          0                13           2             5    6     1      -0.2247918233E-03       5    6    1        -0.1339124485E-01      0.1515850278E-01
          0                14           2             5    6     1      -0.1152808990E-03       5    6    1        -0.6869500341E-02      0.7714503346E-02
          0                15           1             5    6     1      -0.5910040705E-04       5    6    1        -0.3522700228E-02      0.3927610933E-02

    ------------------------------------------------
       NWT REQUIRED           15 OUTER ITERATIONS 
       AND A TOTAL OF         29 INNER ITERATIONS.
    ------------------------------------------------

 NO OUTPUT CONTROL FOR STRESS PERIOD   33   TIME STEP    6
 
 SOLVING FOR HEAD 
                                                   Max.-Head-Change                         Max.-Flux-Residual
  Residual-Control   Outer-Iter.   Inner-Iter.     Column Row Layer    Maximum-Head-Change  Column Row Layer    Maximum-Flux-Residual          L2-NORM 
          0                 1           2             4    7     1       0.3519526660E+00       4    7    1         0.1851160862E+02      0.4010715074E+02
          0                 2           2             5    8     1      -0.1140229665E+00       5    8    1        -0.6400306284E+01      0.8662979655E+01
          0                 3           2             4    6     1       0.1132699112E+00       5    6    1         0.6395797328E+01      0.1496979997E+02
          0                 4           2             5    7     1      -0.1248066088E+00       5    8    1        -0.7293110337E+01      0.1535978334E+02
          0                 5           2             4    7     1      -0.5018349669E-01       4    7    1        -0.2894581986E+01      0.5317394802E+01
          0                 6           2             4    7     1      -0.2647026275E-01       4    7    1        -0.1533557315E+01      0.2648359232E+01
          0                 7           2             4    7     1      -0.1394157836E-01       4    7    1        -0.8088022459E+00      0.1380002035E+01
          0                 8           2             4    7     1      -0.7339998916E-02       4    7    1        -0.4259643507E+00      0.7229355667E+00
          0                 9           2             4    7     1      -0.3864265039E-02       4    7    1        -0.2242566570E+00      0.3790215427E+00
          0                10           2             4    7     1      -0.2034578262E-02       4    7    1        -0.1180613897E+00      0.1987896569E+00
                                                   Max.-Head-Change                         Max.-Flux-Residual
  Residual-Control   Outer-Iter.   Inner-Iter.     Column Row Layer    Maximum-Head-Change  Column Row Layer    Maximum-Flux-Residual          L2-NORM 
          0                11           2             4    7     1      -0.1071352349E-02       4    7    1        -0.6215959536E-01      0.1042986196E+00
          0                12           2             4    7     1      -0.5642123261E-03       4    7    1        -0.3273099653E-01      0.5474110987E-01
          0                13           2             4    7     1      -0.2971687424E-03       4    7    1        -0.1723703825E-01      0.2874027006E-01
          0                14           2             4    7     1      -0.1565347707E-03       4    7    1        -0.9078546731E-02      0.1509387781E-01
          0                15           1             4    7     1      -0.8246358865E-04       4    7    1        -0.4782082781E-02      0.7929283476E-02

    ------------------------------------------------
       NWT REQUIRED           15 OUTER ITERATIONS 
       AND A TOTAL OF         29 INNER ITERATIONS.
    ------------------------------------------------

 NO OUTPUT CONTROL FOR STRESS PERIOD   33   TIME STEP    7
 
 SOLVING FOR HEAD 
                                                   Max.-Head-Change                         Max.-Flux-Residual
  Residual-Control   Outer-Iter.   Inner-Iter.     Column Row Layer    Maximum-Head-Change  Column Row Layer    Maximum-Flux-Residual          L2-NORM 
          0                 1           2             4    7     1       0.3502546168E+00       4    7    1         0.1839846521E+02      0.4032161971E+02
          0                 2           2             5    7     1      -0.1133493495E+00       5    7    1        -0.6353473509E+01      0.1055201041E+02
          0                 3           2             4    7     1       0.1350543829E+00       4    7    1         0.7093251995E+01      0.1549207781E+02
          0                 4           2             5    7     1      -0.1253259483E+00       5    8    1        -0.7291568159E+01      0.1512602964E+02
          0                 5           2             5    6     1      -0.4521137657E-01       5    6    1        -0.2675327427E+01      0.4998018875E+01
          0                 6           2             4    8     1      -0.2321235734E-01       5    6    1        -0.1380764605E+01      0.2331724285E+01
          0                 7           2             4    8     1      -0.1212870595E-01       4    8    1        -0.7075750434E+00      0.1177242754E+01
          0                 8           2             4    8     1      -0.6352029353E-02       4    8    1        -0.3710375228E+00      0.6009206513E+00
          0                 9           2             4    8     1      -0.3323619231E-02       4    8    1        -0.1942957673E+00      0.3072628021E+00
          0                10           2             4    8     1      -0.1737796526E-02       4    8    1        -0.1016522210E+00      0.1572311844E+00
                                                   Max.-Head-Change                         Max.-Flux-Residual
  Residual-Control   Outer-Iter.   Inner-Iter.     Column Row Layer    Maximum-Head-Change  Column Row Layer    Maximum-Flux-Residual          L2-NORM 
          0                11           2             4    8     1      -0.9080690116E-03       4    8    1        -0.5314513375E-01      0.8051404454E-01
          0                12           2             4    8     1      -0.4742398302E-03       4    8    1        -0.2776805119E-01      0.4125710304E-01
          0                13           2             4    8     1      -0.2475464827E-03       4    8    1        -0.1450070043E-01      0.2115460031E-01
          0                14           2             4    8     1      -0.1291552756E-03       4    8    1        -0.7568577271E-02      0.1085356292E-01
          0                15           1             4    8     1      -0.6735650739E-04       4    8    1        -0.3948554000E-02      0.5571646025E-02

    ------------------------------------------------
       NWT REQUIRED           15 OUTER ITERATIONS 
       AND A TOTAL OF         29 INNER ITERATIONS.
    ------------------------------------------------

 NO OUTPUT CONTROL FOR STRESS PERIOD   33   TIME STEP    8
 
 SOLVING FOR HEAD 
                                                   Max.-Head-Change                         Max.-Flux-Residual
  Residual-Control   Outer-Iter.   Inner-Iter.     Column Row Layer    Maximum-Head-Change  Column Row Layer    Maximum-Flux-Residual          L2-NORM 
          0                 1           2             4    7     1       0.3419468231E+00       4    7    1         0.1794619712E+02      0.3989130066E+02
          0                 2           2             4    6     1      -0.1170566647E+00       4    6    1        -0.6550348527E+01      0.9515494780E+01
          0                 3           2             4    7     1       0.1328716516E+00       4    7    1         0.6987643886E+01      0.1484789022E+02
          0                 4           2             4    6     1      -0.1253492194E+00       4    6    1        -0.7275571818E+01      0.1430581699E+02
          0                 5           2             5    8     1      -0.5034194477E-01       5    8    1        -0.2951481428E+01      0.5749980038E+01
          0                 6           2             5    8     1      -0.2607103621E-01       5    8    1        -0.1537800688E+01      0.2772434124E+01
          0                 7           2             5    8     1      -0.1347528657E-01       5    8    1        -0.7962583320E+00      0.1417393269E+01
          0                 8           2             4    8     1      -0.6687822923E-02       4    8    1        -0.3861518658E+00      0.6768913314E+00
          0                 9           2             4    8     1      -0.3518610463E-02       4    8    1        -0.2046154022E+00      0.3150193530E+00
          0                10           2             4    8     1      -0.1845736015E-02       4    8    1        -0.1076247302E+00      0.1596149623E+00
                                                   Max.-Head-Change                         Max.-Flux-Residual
  Residual-Control   Outer-Iter.   Inner-Iter.     Column Row Layer    Maximum-Head-Change  Column Row Layer    Maximum-Flux-Residual          L2-NORM 
          0                11           2             4    8     1      -0.9668878962E-03       4    8    1        -0.5644782989E-01      0.8181892659E-01
          0                12           2             4    8     1      -0.5060991735E-03       4    8    1        -0.2956709335E-01      0.4202054138E-01
          0                13           2             4    8     1      -0.2647533292E-03       4    8    1        -0.1547499340E-01      0.2159816064E-01
          0                14           2             4    8     1      -0.1384315730E-03       4    8    1        -0.8094731239E-02      0.1110859163E-01
          0                15           1             4    8     1      -0.7235032630E-04       4    8    1        -0.4232186500E-02      0.5717002976E-02

    ------------------------------------------------
       NWT REQUIRED           15 OUTER ITERATIONS 
       AND A TOTAL OF         29 INNER ITERATIONS.
    ------------------------------------------------

 NO OUTPUT CONTROL FOR STRESS PERIOD   33   TIME STEP    9
 
 SOLVING FOR HEAD 
                                                   Max.-Head-Change                         Max.-Flux-Residual
  Residual-Control   Outer-Iter.   Inner-Iter.     Column Row Layer    Maximum-Head-Change  Column Row Layer    Maximum-Flux-Residual          L2-NORM 
          0                 1           2             4    7     1       0.3340183781E+00       4    7    1         0.1751418070E+02      0.3949875451E+02
          0                 2           2             4    6     1      -0.1179019042E+00       4    6    1        -0.6538211386E+01      0.8296744738E+01
          0                 3           2             4    7     1       0.1185638704E+00       4    7    1         0.6570673008E+01      0.1523812439E+02
          0                 4           2             4    6     1      -0.1264912531E+00       4    6    1        -0.7284086974E+01      0.1617392235E+02
          0                 5           2             5    7     1      -0.4929004562E-01       5    7    1        -0.2879440232E+01      0.4703804331E+01
          0                 6           2             5    7     1      -0.2554873187E-01       5    7    1        -0.1505795982E+01      0.2092126402E+01
          0                 7           2             5    7     1      -0.1319997367E-01       5    7    1        -0.7803201537E+00      0.1059790633E+01
          0                 8           2             5    7     1      -0.6812523580E-02       5    7    1        -0.4031211464E+00      0.5469227043E+00
          0                 9           2             5    7     1      -0.3514795086E-02       5    7    1        -0.2080421506E+00      0.2828176605E+00
          0                10           2             5    7     1      -0.1813269307E-02       5    7    1        -0.1073326213E+00      0.1462667137E+00
                                                   Max.-Head-Change                         Max.-Flux-Residual
  Residual-Control   Outer-Iter.   Inner-Iter.     Column Row Layer    Maximum-Head-Change  Column Row Layer    Maximum-Flux-Residual          L2-NORM 
          0                11           2             5    7     1      -0.9354788387E-03       5    7    1        -0.5537134964E-01      0.7564419658E-01
          0                12           2             5    7     1      -0.4826452850E-03       5    7    1        -0.2856595637E-01      0.3912011268E-01
          0                13           2             5    7     1      -0.2490282474E-03       5    7    1        -0.1473788580E-01      0.2023127123E-01
          0                14           2             5    7     1      -0.1284980184E-03       5    7    1        -0.7604105771E-02      0.1046276567E-01
          0                15           1             5    7     1      -0.6630881279E-04       5    7    1        -0.3923633269E-02      0.5410912272E-02

    ------------------------------------------------
       NWT REQUIRED           15 OUTER ITERATIONS 
       AND A TOTAL OF         29 INNER ITERATIONS.
    ------------------------------------------------

 NO OUTPUT CONTROL FOR STRESS PERIOD   33   TIME STEP   10
 
 SOLVING FOR HEAD 
                                                   Max.-Head-Change                         Max.-Flux-Residual
  Residual-Control   Outer-Iter.   Inner-Iter.     Column Row Layer    Maximum-Head-Change  Column Row Layer    Maximum-Flux-Residual          L2-NORM 
          0                 1           2             4    7     1       0.3281638804E+00       4    7    1         0.1719460072E+02      0.3907206088E+02
          0                 2           2             5    6     1      -0.1183545972E+00       5    6    1        -0.6651380122E+01      0.1230952871E+02
          0                 3           2             5    7     1       0.1181922078E+00       5    7    1         0.6626187231E+01      0.1447601652E+02
          0                 4           2             4    7     1      -0.1271111156E+00       5    6    1        -0.7303609047E+01      0.1559048526E+02
          0                 5           2             5    7     1      -0.4465958518E-01       5    8    1        -0.2612447542E+01      0.5067392367E+01
          0                 6           2             5    7     1      -0.2316675402E-01       5    7    1        -0.1364417152E+01      0.2030418514E+01
          0                 7           2             5    7     1      -0.1197020402E-01       5    7    1        -0.7075817792E+00      0.1006152274E+01
          0                 8           2             5    7     1      -0.6176459334E-02       5    7    1        -0.3655652331E+00      0.5169014157E+00
          0                 9           2             5    8     1      -0.3188489385E-02       5    7    1        -0.1886169065E+00      0.2666923276E+00
          0                10           2             5    8     1      -0.1647386094E-02       5    8    1        -0.9737175584E-01      0.1376509522E+00
                                                   Max.-Head-Change                         Max.-Flux-Residual
  Residual-Control   Outer-Iter.   Inner-Iter.     Column Row Layer    Maximum-Head-Change  Column Row Layer    Maximum-Flux-Residual          L2-NORM 
          0                11           2             5    8     1      -0.8510909639E-03       5    8    1        -0.5030762998E-01      0.7104665699E-01
          0                12           2             5    8     1      -0.4396783052E-03       5    8    1        -0.2598995131E-01      0.3666882330E-01
          0                13           2             5    8     1      -0.2271306609E-03       5    8    1        -0.1342628219E-01      0.1892532463E-01
          0                14           2             5    8     1      -0.1173274293E-03       5    8    1        -0.6935660650E-02      0.9767535121E-02
          0                15           1             5    8     1      -0.6060481961E-04       5    8    1        -0.3582638646E-02      0.5041070440E-02

    ------------------------------------------------
       NWT REQUIRED           15 OUTER ITERATIONS 
       AND A TOTAL OF         29 INNER ITERATIONS.
    ------------------------------------------------

 NO OUTPUT CONTROL FOR STRESS PERIOD   33   TIME STEP   11
 
 SOLVING FOR HEAD 
                                                   Max.-Head-Change                         Max.-Flux-Residual
  Residual-Control   Outer-Iter.   Inner-Iter.     Column Row Layer    Maximum-Head-Change  Column Row Layer    Maximum-Flux-Residual          L2-NORM 
          0                 1           2             4    7     1       0.3274658282E+00       4    7    1         0.1716591074E+02      0.3872147950E+02
          0                 2           2             5    6     1      -0.1178003856E+00       5    6    1        -0.6648677064E+01      0.1146959400E+02
          0                 3           2             5    7     1       0.1162391486E+00       5    7    1         0.6517023575E+01      0.1462680937E+02
          0                 4           2             4    8     1      -0.1261553096E+00       5    6    1        -0.7300282269E+01      0.1533057965E+02
          0                 5           2             4    6     1      -0.4982376714E-01       4    6    1        -0.2909841301E+01      0.5300652301E+01
          0                 6           2             4    6     1      -0.2583631245E-01       4    6    1        -0.1522114606E+01      0.2512837298E+01
          0                 7           2             4    6     1      -0.1335487611E-01       4    6    1        -0.7891136501E+00      0.1284951601E+01
          0                 8           2             4    6     1      -0.6895594627E-02       4    6    1        -0.4078570997E+00      0.6629622907E+00
          0                 9           2             4    6     1      -0.3559071509E-02       4    6    1        -0.2105814699E+00      0.3422794154E+00
          0                10           2             4    6     1      -0.1836714282E-02       4    6    1        -0.1086857965E+00      0.1767025823E+00
                                                   Max.-Head-Change                         Max.-Flux-Residual
  Residual-Control   Outer-Iter.   Inner-Iter.     Column Row Layer    Maximum-Head-Change  Column Row Layer    Maximum-Flux-Residual          L2-NORM 
          0                11           2             4    6     1      -0.9478140475E-03       4    6    1        -0.5608773793E-01      0.9121724848E-01
          0                12           2             4    6     1      -0.4890958618E-03       4    6    1        -0.2894280553E-01      0.4708657307E-01
          0                13           2             4    6     1      -0.2523820768E-03       4    6    1        -0.1493492231E-01      0.2430578849E-01
          0                14           2             4    6     1      -0.1302321499E-03       4    6    1        -0.7706534081E-02      0.1254634645E-01
          0                15           1             4    6     1      -0.6720067193E-04       4    6    1        -0.3976586788E-02      0.6476205449E-02

    ------------------------------------------------
       NWT REQUIRED           15 OUTER ITERATIONS 
       AND A TOTAL OF         29 INNER ITERATIONS.
    ------------------------------------------------

 NO OUTPUT CONTROL FOR STRESS PERIOD   33   TIME STEP   12
 
 SOLVING FOR HEAD 
                                                   Max.-Head-Change                         Max.-Flux-Residual
  Residual-Control   Outer-Iter.   Inner-Iter.     Column Row Layer    Maximum-Head-Change  Column Row Layer    Maximum-Flux-Residual          L2-NORM 
          0                 1           2             4    7     1       0.3269504505E+00       4    7    1         0.1714597614E+02      0.3838992409E+02
          0                 2           2             5    6     1      -0.1173733890E+00       5    6    1        -0.6646269493E+01      0.9025105754E+01
          0                 3           2             5    7     1       0.1150903337E+00       5    7    1         0.6452722280E+01      0.1439165158E+02
          0                 4           2             5    6     1      -0.1241376219E+00       5    6    1        -0.7297489482E+01      0.1497482008E+02
          0                 5           2             4    7     1      -0.5090758024E-01       4    7    1        -0.2906708901E+01      0.5646023103E+01
          0                 6           2             4    7     1      -0.2702387842E-01       4    7    1        -0.1556059562E+01      0.2638097168E+01
          0                 7           2             4    7     1      -0.1430012161E-01       4    7    1        -0.8258402457E+00      0.1366884439E+01
          0                 8           2             4    7     1      -0.7558012646E-02       4    7    1        -0.4369672125E+00      0.7172762021E+00
          0                 9           2             4    7     1      -0.3992444514E-02       4    7    1        -0.2309386251E+00      0.3768266572E+00
          0                10           2             4    7     1      -0.2108303114E-02       4    7    1        -0.1219871975E+00      0.1979770330E+00
                                                   Max.-Head-Change                         Max.-Flux-Residual
  Residual-Control   Outer-Iter.   Inner-Iter.     Column Row Layer    Maximum-Head-Change  Column Row Layer    Maximum-Flux-Residual          L2-NORM 
          0                11           2             4    7     1      -0.1113079550E-02       4    7    1        -0.6441650008E-01      0.1040121140E+00
          0                12           2             4    7     1      -0.5875339463E-03       4    7    1        -0.3400790198E-01      0.5464582866E-01
          0                13           2             4    7     1      -0.3100705847E-03       4    7    1        -0.1795049848E-01      0.2871031681E-01
          0                14           2             4    7     1      -0.1636114309E-03       4    7    1        -0.9473145464E-02      0.1508438713E-01
          0                15           1             4    7     1      -0.8631689553E-04       4    7    1        -0.4998474477E-02      0.7925486368E-02

    ------------------------------------------------
       NWT REQUIRED           15 OUTER ITERATIONS 
       AND A TOTAL OF         29 INNER ITERATIONS.
    ------------------------------------------------

 NO OUTPUT CONTROL FOR STRESS PERIOD   33   TIME STEP   13
 
 SOLVING FOR HEAD 
                                                   Max.-Head-Change                         Max.-Flux-Residual
  Residual-Control   Outer-Iter.   Inner-Iter.     Column Row Layer    Maximum-Head-Change  Column Row Layer    Maximum-Flux-Residual          L2-NORM 
          0                 1           2             4    7     1       0.3265464024E+00       4    7    1         0.1713339643E+02      0.3805812618E+02
          0                 2           2             5    6     1      -0.9448157299E-01       5    6    1        -0.5296643108E+01      0.8699863522E+01
          0                 3           2             4    7     1       0.1302878169E+00       4    7    1         0.6841736123E+01      0.1471644184E+02
          0                 4           2             5    7     1      -0.1248284693E+00       5    8    1        -0.7270463175E+01      0.1489243141E+02
          0                 5           2             4    8     1      -0.4877751344E-01       4    8    1        -0.2827996360E+01      0.5487685893E+01
          0                 6           2             4    8     1      -0.2561367742E-01       4    8    1        -0.1492545704E+01      0.2478946749E+01
          0                 7           2             4    8     1      -0.1342065282E-01       4    8    1        -0.7835994574E+00      0.1261859582E+01
          0                 8           2             4    8     1      -0.7024537394E-02       4    8    1        -0.4105294863E+00      0.6530226527E+00
          0                 9           2             4    8     1      -0.3674361952E-02       4    8    1        -0.2148572422E+00      0.3386455408E+00
          0                10           2             4    8     1      -0.1921039586E-02       4    8    1        -0.1123780379E+00      0.1756953260E+00
                                                   Max.-Head-Change                         Max.-Flux-Residual
  Residual-Control   Outer-Iter.   Inner-Iter.     Column Row Layer    Maximum-Head-Change  Column Row Layer    Maximum-Flux-Residual          L2-NORM 
          0                11           2             4    8     1      -0.1003953231E-02       4    8    1        -0.5874976550E-01      0.9117982386E-01
          0                12           2             4    8     1      -0.5244843695E-03       4    8    1        -0.3070122418E-01      0.4733098704E-01
          0                13           2             4    8     1      -0.2739096591E-03       4    8    1        -0.1603794767E-01      0.2457468275E-01
          0                14           2             4    8     1      -0.1430043614E-03       4    8    1        -0.8375274182E-02      0.1276183360E-01
          0                15           1             4    8     1      -0.7463943987E-04       4    8    1        -0.4372377726E-02      0.6628406946E-02

    ------------------------------------------------
       NWT REQUIRED           15 OUTER ITERATIONS 
       AND A TOTAL OF         29 INNER ITERATIONS.
    ------------------------------------------------

 NO OUTPUT CONTROL FOR STRESS PERIOD   33   TIME STEP   14
 
 SOLVING FOR HEAD 
                                                   Max.-Head-Change                         Max.-Flux-Residual
  Residual-Control   Outer-Iter.   Inner-Iter.     Column Row Layer    Maximum-Head-Change  Column Row Layer    Maximum-Flux-Residual          L2-NORM 
          0                 1           2             4    7     1       0.3204512927E+00       4    7    1         0.1680629554E+02      0.3773906892E+02
          0                 2           2             5    8     1      -0.1182249970E+00       5    8    1        -0.6604163609E+01      0.1007605860E+02
          0                 3           2             4    7     1       0.1220620875E+00       4    7    1         0.6763979116E+01      0.1490554866E+02
          0                 4           2             5    7     1      -0.1257933312E+00       5    8    1        -0.7299537647E+01      0.1444611645E+02
          0                 5           2             5    6     1      -0.5000531119E-01       5    6    1        -0.2944296868E+01      0.5710154682E+01
          0                 6           2             5    6     1      -0.2583290960E-01       5    6    1        -0.1527359536E+01      0.2869660320E+01
          0                 7           2             5    6     1      -0.1332842616E-01       5    6    1        -0.7889404717E+00      0.1500617164E+01
          0                 8           2             4    6     1      -0.6950386601E-02       5    6    1        -0.4070315823E+00      0.7883445714E+00
          0                 9           2             4    6     1      -0.3686065390E-02       4    6    1        -0.2123913611E+00      0.4144130259E+00
          0                10           2             4    6     1      -0.1954150721E-02       4    6    1        -0.1126364215E+00      0.2179019683E+00
                                                   Max.-Head-Change                         Max.-Flux-Residual
  Residual-Control   Outer-Iter.   Inner-Iter.     Column Row Layer    Maximum-Head-Change  Column Row Layer    Maximum-Flux-Residual          L2-NORM 
          0                11           2             4    6     1      -0.1035627866E-02       4    6    1        -0.5971206268E-01      0.1146014165E+00
          0                12           2             4    6     1      -0.5486675185E-03       4    6    1        -0.3164435187E-01      0.6028615929E-01
          0                13           2             4    6     1      -0.2904000220E-03       4    6    1        -0.1676449268E-01      0.3135023252E-01
          0                14           2             4    6     1      -0.1525250063E-03       4    6    1        -0.8872781674E-02      0.1501680455E-01
          0                15           1             4    7     1      -0.7994798505E-04       4    6    1        -0.4659243744E-02      0.7819627293E-02

    ------------------------------------------------
       NWT REQUIRED           15 OUTER ITERATIONS 
       AND A TOTAL OF         29 INNER ITERATIONS.
    ------------------------------------------------

 NO OUTPUT CONTROL FOR STRESS PERIOD   33   TIME STEP   15
 
 SOLVING FOR HEAD 
                                                   Max.-Head-Change                         Max.-Flux-Residual
  Residual-Control   Outer-Iter.   Inner-Iter.     Column Row Layer    Maximum-Head-Change  Column Row Layer    Maximum-Flux-Residual          L2-NORM 
          0                 1           2             4    7     1       0.3148931191E+00       4    7    1         0.1650569903E+02      0.3744731657E+02
          0                 2           2             5    8     1      -0.1185776723E+00       5    8    1        -0.6606809662E+01      0.9634125873E+01
          0                 3           2             4    7     1       0.1207368631E+00       4    7    1         0.6688282762E+01      0.1519644117E+02
          0                 4           2             5    7     1      -0.1260300679E+00       5    8    1        -0.7299396924E+01      0.1530730674E+02
          0                 5           2             5    6     1      -0.4605472944E-01       5    6    1        -0.2713400754E+01      0.5078274781E+01
          0                 6           2             4    8     1      -0.2377257692E-01       5    6    1        -0.1406670591E+01      0.2511719448E+01
          0                 7           2             4    8     1      -0.1244669197E-01       4    8    1        -0.7262700430E+00      0.1308038087E+01
          0                 8           2             4    8     1      -0.6515093880E-02       4    8    1        -0.3802375543E+00      0.6854541715E+00
          0                 9           2             4    8     1      -0.3410511107E-02       4    8    1        -0.1990264646E+00      0.3595216802E+00
          0                10           2             4    8     1      -0.1785656311E-02       4    8    1        -0.1041842657E+00      0.1886409456E+00
                                                   Max.-Head-Change                         Max.-Flux-Residual
  Residual-Control   Outer-Iter.   Inner-Iter.     Column Row Layer    Maximum-Head-Change  Column Row Layer    Maximum-Flux-Residual          L2-NORM 
          0                11           2             4    8     1      -0.9351275530E-03       4    8    1        -0.5454742332E-01      0.9901376437E-01
          0                12           2             4    8     1      -0.4898264330E-03       4    8    1        -0.2856546624E-01      0.5198769097E-01
          0                13           2             4    8     1      -0.2566326747E-03       4    8    1        -0.1496259407E-01      0.2730517418E-01
          0                14           2             4    8     1      -0.1344865076E-03       4    8    1        -0.7839183950E-02      0.1434569331E-01
          0                15           1             4    8     1      -0.7049209809E-04       4    8    1        -0.4108013180E-02      0.7539154809E-02

    ------------------------------------------------
       NWT REQUIRED           15 OUTER ITERATIONS 
       AND A TOTAL OF         29 INNER ITERATIONS.
    ------------------------------------------------

 NO OUTPUT CONTROL FOR STRESS PERIOD   33   TIME STEP   16
 
 SOLVING FOR HEAD 
                                                   Max.-Head-Change                         Max.-Flux-Residual
  Residual-Control   Outer-Iter.   Inner-Iter.     Column Row Layer    Maximum-Head-Change  Column Row Layer    Maximum-Flux-Residual          L2-NORM 
          0                 1           2             4    7     1       0.3097843920E+00       4    7    1         0.1623070642E+02      0.3712939526E+02
          0                 2           2             5    8     1      -0.1009198249E+00       5    8    1        -0.5623359657E+01      0.9968813513E+01
          0                 3           2             4    8     1       0.1134125440E+00       4    8    1         0.6354619741E+01      0.1418791084E+02
          0                 4           2             4    7     1      -0.1266615196E+00       4    7    1        -0.7232722515E+01      0.1552957978E+02
          0                 5           2             5    6     1      -0.4648865161E-01       5    6    1        -0.2737221759E+01      0.5204650595E+01
          0                 6           2             5    6     1      -0.2380161596E-01       5    6    1        -0.1419945309E+01      0.2085119628E+01
          0                 7           2             4    8     1      -0.1219195903E-01       5    6    1        -0.7267431817E+00      0.1029116294E+01
          0                 8           2             4    8     1      -0.6318497706E-02       4    8    1        -0.3723770898E+00      0.5257776146E+00
          0                 9           2             4    8     1      -0.3272916290E-02       4    8    1        -0.1929747858E+00      0.2696993651E+00
          0                10           2             4    8     1      -0.1695026010E-02       4    8    1        -0.9995584933E-01      0.1384024162E+00
                                                   Max.-Head-Change                         Max.-Flux-Residual
  Residual-Control   Outer-Iter.   Inner-Iter.     Column Row Layer    Maximum-Head-Change  Column Row Layer    Maximum-Flux-Residual          L2-NORM 
          0                11           2             4    8     1      -0.8777830972E-03       4    8    1        -0.5176539841E-01      0.7103325269E-01
          0                12           2             4    8     1      -0.4545530923E-03       4    8    1        -0.2680658310E-01      0.3646189403E-01
          0                13           2             4    8     1      -0.2353827330E-03       4    8    1        -0.1388130626E-01      0.1871907092E-01
          0                14           2             4    8     1      -0.1218875323E-03       4    8    1        -0.7188064176E-02      0.9611702510E-02
          0                15           1             4    8     1      -0.6311601358E-04       4    8    1        -0.3722102309E-02      0.4936150439E-02

    ------------------------------------------------
       NWT REQUIRED           15 OUTER ITERATIONS 
       AND A TOTAL OF         29 INNER ITERATIONS.
    ------------------------------------------------

 NO OUTPUT CONTROL FOR STRESS PERIOD   33   TIME STEP   17
 
 SOLVING FOR HEAD 
                                                   Max.-Head-Change                         Max.-Flux-Residual
  Residual-Control   Outer-Iter.   Inner-Iter.     Column Row Layer    Maximum-Head-Change  Column Row Layer    Maximum-Flux-Residual          L2-NORM 
          0                 1           2             4    7     1       0.3080278716E+00       4    7    1         0.1614038768E+02      0.3684734622E+02
          0                 2           2             4    6     1      -0.1204168544E+00       4    6    1        -0.6631627569E+01      0.1092670950E+02
          0                 3           2             4    8     1       0.1132833142E+00       4    8    1         0.6351047941E+01      0.1410307533E+02
          0                 4           2             4    7     1      -0.1276313353E+00       4    6    1        -0.7290491009E+01      0.1571068379E+02
          0                 5           2             5    8     1      -0.5079419272E-01       5    8    1        -0.2978957228E+01      0.5498774586E+01
          0                 6           2             5    7     1      -0.2643553003E-01       5    8    1        -0.1551603126E+01      0.2645899135E+01
          0                 7           2             5    7     1      -0.1385976052E-01       5    7    1        -0.8076643205E+00      0.1362498190E+01
          0                 8           2             5    7     1      -0.7204271417E-02       5    7    1        -0.4234188464E+00      0.6075528944E+00
          0                 9           2             5    7     1      -0.3724709767E-02       5    7    1        -0.2200421345E+00      0.2985914229E+00
          0                10           2             5    7     1      -0.1922159767E-02       5    7    1        -0.1137482959E+00      0.1533211680E+00
                                                   Max.-Head-Change                         Max.-Flux-Residual
  Residual-Control   Outer-Iter.   Inner-Iter.     Column Row Layer    Maximum-Head-Change  Column Row Layer    Maximum-Flux-Residual          L2-NORM 
          0                11           2             5    7     1      -0.9913381410E-03       5    7    1        -0.5869689787E-01      0.7912071409E-01
          0                12           2             5    7     1      -0.5111792341E-03       5    7    1        -0.3027144362E-01      0.4084754419E-01
          0                13           2             5    7     1      -0.2635761094E-03       5    7    1        -0.1560897632E-01      0.2108821984E-01
          0                14           2             5    7     1      -0.1359068433E-03       5    7    1        -0.8048197313E-02      0.1088690066E-01
          0                15           1             5    7     1      -0.7007867672E-04       5    7    1        -0.4149786372E-02      0.5620343308E-02

    ------------------------------------------------
       NWT REQUIRED           15 OUTER ITERATIONS 
       AND A TOTAL OF         29 INNER ITERATIONS.
    ------------------------------------------------

 NO OUTPUT CONTROL FOR STRESS PERIOD   33   TIME STEP   18
 
 SOLVING FOR HEAD 
                                                   Max.-Head-Change                         Max.-Flux-Residual
  Residual-Control   Outer-Iter.   Inner-Iter.     Column Row Layer    Maximum-Head-Change  Column Row Layer    Maximum-Flux-Residual          L2-NORM 
          0                 1           2             4    7     1       0.3073541781E+00       4    7    1         0.1610836341E+02      0.3660607471E+02
          0                 2           2             4    6     1      -0.1202335743E+00       4    6    1        -0.6630132585E+01      0.1130867264E+02
          0                 3           2             5    7     1       0.1129272919E+00       5    7    1         0.6333670219E+01      0.1441785914E+02
          0                 4           2             4    8     1      -0.1263413752E+00       4    6    1        -0.7292022262E+01      0.1520509568E+02
          0                 5           2             5    6     1      -0.4673074982E-01       5    6    1        -0.2746008621E+01      0.5375930726E+01
          0                 6           2             5    7     1      -0.2429874405E-01       5    6    1        -0.1427408804E+01      0.2506327548E+01
          0                 7           2             5    7     1      -0.1275886124E-01       5    7    1        -0.7424209708E+00      0.1284325736E+01
          0                 8           2             5    7     1      -0.6691046152E-02       5    7    1        -0.3897999123E+00      0.6665316523E+00
          0                 9           2             5    7     1      -0.3506507208E-02       5    7    1        -0.2044104122E+00      0.3463939527E+00
          0                10           2             5    7     1      -0.1836728950E-02       5    7    1        -0.1071194962E+00      0.1800448275E+00
                                                   Max.-Head-Change                         Max.-Flux-Residual
  Residual-Control   Outer-Iter.   Inner-Iter.     Column Row Layer    Maximum-Head-Change  Column Row Layer    Maximum-Flux-Residual          L2-NORM 
          0                11           2             5    7     1      -0.9617064514E-03       5    7    1        -0.5610812654E-01      0.9358539144E-01
          0                12           2             5    7     1      -0.5033680707E-03       5    7    1        -0.2937724163E-01      0.4864674783E-01
          0                13           2             5    7     1      -0.2633819999E-03       5    7    1        -0.1537596483E-01      0.2528826921E-01
          0                14           2             5    7     1      -0.1377693715E-03       5    7    1        -0.8045097354E-02      0.1314629249E-01
          0                15           1             5    7     1      -0.7204320826E-04       5    7    1        -0.4208105288E-02      0.6834471474E-02

    ------------------------------------------------
       NWT REQUIRED           15 OUTER ITERATIONS 
       AND A TOTAL OF         29 INNER ITERATIONS.
    ------------------------------------------------

 NO OUTPUT CONTROL FOR STRESS PERIOD   33   TIME STEP   19
 
 SOLVING FOR HEAD 
                                                   Max.-Head-Change                         Max.-Flux-Residual
  Residual-Control   Outer-Iter.   Inner-Iter.     Column Row Layer    Maximum-Head-Change  Column Row Layer    Maximum-Flux-Residual          L2-NORM 
          0                 1           2             4    7     1       0.3065775388E+00       4    7    1         0.1607011891E+02      0.3633834740E+02
          0                 2           2             4    6     1      -0.1195315653E+00       4    6    1        -0.6629169765E+01      0.1021421348E+02
          0                 3           2             5    7     1       0.1121601490E+00       5    7    1         0.6288384740E+01      0.1441924505E+02
          0                 4           2             4    8     1      -0.1259771246E+00       4    6    1        -0.7290974803E+01      0.1482297662E+02
          0                 5           2             4    7     1      -0.5136057671E-01       4    7    1        -0.2964455402E+01      0.5751316157E+01
          0                 6           2             4    7     1      -0.2697544330E-01       4    7    1        -0.1569504374E+01      0.2883411789E+01
          0                 7           2             4    7     1      -0.1412879463E-01       4    7    1        -0.8241541860E+00      0.1501537634E+01
          0                 8           2             4    7     1      -0.7394149812E-02       4    7    1        -0.4316276873E+00      0.7852019641E+00
          0                 9           2             4    7     1      -0.3869032624E-02       4    7    1        -0.2258791398E+00      0.4107864018E+00
          0                10           2             4    7     1      -0.2024608403E-02       4    7    1        -0.1181899468E+00      0.2149346495E+00
                                                   Max.-Head-Change                         Max.-Flux-Residual
  Residual-Control   Outer-Iter.   Inner-Iter.     Column Row Layer    Maximum-Head-Change  Column Row Layer    Maximum-Flux-Residual          L2-NORM 
          0                11           2             4    7     1      -0.1059577927E-02       4    7    1        -0.6184600244E-01      0.1124738674E+00
          0                12           2             4    7     1      -0.5546063355E-03       4    7    1        -0.3236656711E-01      0.5886438808E-01
          0                13           2             5    7     1      -0.2909884648E-03       4    7    1        -0.1694111045E-01      0.3081104516E-01
          0                14           2             5    7     1      -0.1538316333E-03       5    7    1        -0.8890642600E-02      0.1612903730E-01
          0                15           1             5    7     1      -0.8127656877E-04       5    7    1        -0.4699900523E-02      0.8444109707E-02

    ------------------------------------------------
       NWT REQUIRED           15 OUTER ITERATIONS 
       AND A TOTAL OF         29 INNER ITERATIONS.
    ------------------------------------------------

 NO OUTPUT CONTROL FOR STRESS PERIOD   33   TIME STEP   20
 
 SOLVING FOR HEAD 
                                                   Max.-Head-Change                         Max.-Flux-Residual
  Residual-Control   Outer-Iter.   Inner-Iter.     Column Row Layer    Maximum-Head-Change  Column Row Layer    Maximum-Flux-Residual          L2-NORM 
          0                 1           2             4    7     1       0.3054942163E+00       4    7    1         0.1601460700E+02      0.3608047730E+02
          0                 2           2             4    8     1      -0.1140768418E+00       4    8    1        -0.6342672039E+01      0.9307706541E+01
          0                 3           2             4    7     1       0.1175813427E+00       4    7    1         0.6533659429E+01      0.1457059018E+02
          0                 4           2             4    8     1      -0.1262239022E+00       4    8    1        -0.7309953805E+01      0.1483962806E+02
          0                 5           2             5    8     1      -0.4636357913E-01       5    8    1        -0.2717114026E+01      0.5514025235E+01
          0                 6           2             5    7     1      -0.2439443077E-01       5    8    1        -0.1416286135E+01      0.2553920738E+01
          0                 7           2             5    7     1      -0.1285067354E-01       5    7    1        -0.7453588763E+00      0.1318756368E+01
          0                 8           2             5    7     1      -0.6767653276E-02       5    7    1        -0.3926354948E+00      0.6893223748E+00
          0                 9           2             5    7     1      -0.3563098208E-02       5    7    1        -0.2067714544E+00      0.3607455113E+00
          0                10           2             5    7     1      -0.1875426214E-02       5    7    1        -0.1088602205E+00      0.1888099917E+00
                                                   Max.-Head-Change                         Max.-Flux-Residual
  Residual-Control   Outer-Iter.   Inner-Iter.     Column Row Layer    Maximum-Head-Change  Column Row Layer    Maximum-Flux-Residual          L2-NORM 
          0                11           2             5    7     1      -0.9868721287E-03       5    7    1        -0.5729681844E-01      0.9882520889E-01
          0                12           2             5    7     1      -0.5191786325E-03       5    7    1        -0.3014953999E-01      0.5172904114E-01
          0                13           2             5    7     1      -0.2730698944E-03       5    7    1        -0.1586083543E-01      0.2707866212E-01
          0                14           2             5    7     1      -0.1435944433E-03       5    7    1        -0.8342047557E-02      0.1417573827E-01
          0                15           1             5    7     1      -0.7549420824E-04       5    7    1        -0.4386581455E-02      0.7421446048E-02

    ------------------------------------------------
       NWT REQUIRED           15 OUTER ITERATIONS 
       AND A TOTAL OF         29 INNER ITERATIONS.
    ------------------------------------------------

 NO OUTPUT CONTROL FOR STRESS PERIOD   33   TIME STEP   21
 
 SOLVING FOR HEAD 
                                                   Max.-Head-Change                         Max.-Flux-Residual
  Residual-Control   Outer-Iter.   Inner-Iter.     Column Row Layer    Maximum-Head-Change  Column Row Layer    Maximum-Flux-Residual          L2-NORM 
          0                 1           2             4    7     1       0.2996869541E+00       4    7    1         0.1569821916E+02      0.3581638915E+02
          0                 2           2             5    6     1      -0.1078961925E+00       5    6    1        -0.6064867981E+01      0.8453241266E+01
          0                 3           2             4    7     1       0.1167251359E+00       4    7    1         0.6493085673E+01      0.1416773778E+02
          0                 4           2             5    6     1      -0.1243728902E+00       5    6    1        -0.7291387587E+01      0.1442529965E+02
          0                 5           2             4    8     1      -0.5290617038E-01       4    8    1        -0.3047917001E+01      0.6191032907E+01
          0                 6           2             4    6     1      -0.2669333497E-01       4    6    1        -0.1556820907E+01      0.3052975986E+01
          0                 7           2             4    6     1      -0.1396705370E-01       4    6    1        -0.8154890097E+00      0.1480983056E+01
          0                 8           2             4    6     1      -0.7306000019E-02       4    6    1        -0.4266771475E+00      0.7692647600E+00
          0                 9           2             4    6     1      -0.3821725336E-02       4    6    1        -0.2231839232E+00      0.4028705178E+00
          0                10           2             4    6     1      -0.1999343031E-02       4    6    1        -0.1167439977E+00      0.2111723753E+00
                                                   Max.-Head-Change                         Max.-Flux-Residual
  Residual-Control   Outer-Iter.   Inner-Iter.     Column Row Layer    Maximum-Head-Change  Column Row Layer    Maximum-Flux-Residual          L2-NORM 
          0                11           2             4    7     1      -0.1037318086E-02       4    7    1        -0.6023281892E-01      0.9962682023E-01
          0                12           2             4    7     1      -0.5426561570E-03       4    7    1        -0.3169060431E-01      0.4881832782E-01
          0                13           2             4    7     1      -0.2833115130E-03       4    7    1        -0.1657580473E-01      0.2527656390E-01
          0                14           2             4    7     1      -0.1478209959E-03       4    7    1        -0.8653387278E-02      0.1317457265E-01
          0                15           1             4    7     1      -0.7711601811E-04       4    7    1        -0.4514855465E-02      0.6871803432E-02

    ------------------------------------------------
       NWT REQUIRED           15 OUTER ITERATIONS 
       AND A TOTAL OF         29 INNER ITERATIONS.
    ------------------------------------------------

 NO OUTPUT CONTROL FOR STRESS PERIOD   33   TIME STEP   22
 
 SOLVING FOR HEAD 
                                                   Max.-Head-Change                         Max.-Flux-Residual
  Residual-Control   Outer-Iter.   Inner-Iter.     Column Row Layer    Maximum-Head-Change  Column Row Layer    Maximum-Flux-Residual          L2-NORM 
          0                 1           2             4    7     1       0.2943562717E+00       4    7    1         0.1540904212E+02      0.3558608103E+02
          0                 2           2             5    6     1      -0.1207469610E+00       5    6    1        -0.6775033927E+01      0.8676773514E+01
          0                 3           2             4    7     1       0.1162377555E+00       4    7    1         0.6434994447E+01      0.1486789108E+02
          0                 4           2             5    7     1      -0.1251544011E+00       5    6    1        -0.7303156887E+01      0.1479329581E+02
          0                 5           2             4    8     1      -0.4801697152E-01       4    8    1        -0.2764894621E+01      0.5553675504E+01
          0                 6           2             4    8     1      -0.2548016157E-01       4    8    1        -0.1467413061E+01      0.2790220627E+01
          0                 7           2             4    8     1      -0.1351810630E-01       4    8    1        -0.7786619674E+00      0.1461722110E+01
          0                 8           2             4    8     1      -0.7170235384E-02       4    8    1        -0.4130968726E+00      0.7693794774E+00
          0                 9           2             4    8     1      -0.3802394412E-02       4    8    1        -0.2191083493E+00      0.4051755594E+00
          0                10           2             4    8     1      -0.2016001419E-02       4    8    1        -0.1161909570E+00      0.2134069411E+00
                                                   Max.-Head-Change                         Max.-Flux-Residual
  Residual-Control   Outer-Iter.   Inner-Iter.     Column Row Layer    Maximum-Head-Change  Column Row Layer    Maximum-Flux-Residual          L2-NORM 
          0                11           2             4    8     1      -0.1068657300E-02       4    8    1        -0.6160214118E-01      0.1124165654E+00
          0                12           2             4    8     1      -0.5663749191E-03       4    8    1        -0.3265377304E-01      0.5922560442E-01
          0                13           2             4    8     1      -0.3001174978E-03       4    8    1        -0.1730569222E-01      0.3120644801E-01
          0                14           2             4    8     1      -0.1590025129E-03       4    8    1        -0.9169938561E-02      0.1644491800E-01
          0                15           1             4    8     1      -0.8422585886E-04       4    8    1        -0.4858132244E-02      0.8666987362E-02

    ------------------------------------------------
       NWT REQUIRED           15 OUTER ITERATIONS 
       AND A TOTAL OF         29 INNER ITERATIONS.
    ------------------------------------------------

 NO OUTPUT CONTROL FOR STRESS PERIOD   33   TIME STEP   23
 
 SOLVING FOR HEAD 
                                                   Max.-Head-Change                         Max.-Flux-Residual
  Residual-Control   Outer-Iter.   Inner-Iter.     Column Row Layer    Maximum-Head-Change  Column Row Layer    Maximum-Flux-Residual          L2-NORM 
          0                 1           2             4    7     1       0.2907424911E+00       4    7    1         0.1521730367E+02      0.3533619349E+02
          0                 2           2             5    6     1      -0.1212985453E+00       5    6    1        -0.6766917122E+01      0.1070413191E+02
          0                 3           2             4    7     1       0.1172400012E+00       4    7    1         0.6491977674E+01      0.1503640597E+02
          0                 4           2             5    7     1      -0.1268060994E+00       5    6    1        -0.7305237967E+01      0.1616454633E+02
          0                 5           2             4    6     1      -0.4689312620E-01       4    6    1        -0.2739479920E+01      0.4659530051E+01
          0                 6           2             4    6     1      -0.2433309166E-01       4    6    1        -0.1432572879E+01      0.2085523935E+01
          0                 7           2             4    6     1      -0.1261016757E-01       4    6    1        -0.7432132186E+00      0.1074221526E+01
          0                 8           2             4    6     1      -0.6533985807E-02       4    6    1        -0.3851377225E+00      0.5599650212E+00
          0                 9           2             4    8     1      -0.3405072908E-02       4    6    1        -0.1995553456E+00      0.2923948094E+00
          0                10           2             4    8     1      -0.1776720687E-02       4    8    1        -0.1040089840E+00      0.1527955184E+00
                                                   Max.-Head-Change                         Max.-Flux-Residual
  Residual-Control   Outer-Iter.   Inner-Iter.     Column Row Layer    Maximum-Head-Change  Column Row Layer    Maximum-Flux-Residual          L2-NORM 
          0                11           2             4    8     1      -0.9274961333E-03       4    8    1        -0.5427005458E-01      0.7989839951E-01
          0                12           2             4    8     1      -0.4843951843E-03       4    8    1        -0.2833020995E-01      0.4180601010E-01
          0                13           2             4    8     1      -0.2530910960E-03       4    8    1        -0.1479564802E-01      0.2188767256E-01
          0                14           2             4    8     1      -0.1322932942E-03       4    8    1        -0.7730497099E-02      0.1146586276E-01
          0                15           1             4    8     1      -0.6917947532E-04       4    8    1        -0.4040774817E-02      0.6009606170E-02

    ------------------------------------------------
       NWT REQUIRED           15 OUTER ITERATIONS 
       AND A TOTAL OF         29 INNER ITERATIONS.
    ------------------------------------------------

 NO OUTPUT CONTROL FOR STRESS PERIOD   33   TIME STEP   24
 
 SOLVING FOR HEAD 
                                                   Max.-Head-Change                         Max.-Flux-Residual
  Residual-Control   Outer-Iter.   Inner-Iter.     Column Row Layer    Maximum-Head-Change  Column Row Layer    Maximum-Flux-Residual          L2-NORM 
          0                 1           2             4    7     1       0.2869913081E+00       4    7    1         0.1502392427E+02      0.3286374476E+02
          0                 2           2             5    8     1      -0.1463258367E+00       5    8    1        -0.7939259525E+01      0.1404180945E+02
          0                 3           2             5    8     1       0.1365695752E+00       5    8    1         0.7570017470E+01      0.1530269678E+02
          0                 4           2             5    8     1      -0.1536193580E+00       5    8    1        -0.8770375009E+01      0.1697466854E+02
          0                 5           2             4    6     1      -0.4726218174E-01       4    6    1        -0.2761176785E+01      0.4540201212E+01
          0                 6           2             4    6     1      -0.2449680042E-01       4    6    1        -0.1443845790E+01      0.2074759485E+01
          0                 7           2             4    6     1      -0.1265582369E-01       4    6    1        -0.7481927919E+00      0.1056269371E+01
          0                 8           2             4    6     1      -0.6530993121E-02       4    6    1        -0.3865031419E+00      0.5451468618E+00
          0                 9           2             4    8     1      -0.3373093897E-02       4    6    1        -0.1994443677E+00      0.2817314553E+00
          0                10           2             4    8     1      -0.1746858056E-02       4    8    1        -0.1030141026E+00      0.1456048851E+00
                                                   Max.-Head-Change                         Max.-Flux-Residual
  Residual-Control   Outer-Iter.   Inner-Iter.     Column Row Layer    Maximum-Head-Change  Column Row Layer    Maximum-Flux-Residual          L2-NORM 
          0                11           2             4    8     1      -0.9046308599E-03       4    8    1        -0.5334783207E-01      0.7524898231E-01
          0                12           2             4    8     1      -0.4684646553E-03       4    8    1        -0.2762625175E-01      0.3888811506E-01
          0                13           2             4    8     1      -0.2425919403E-03       4    8    1        -0.1430602524E-01      0.2009692900E-01
          0                14           2             4    8     1      -0.1256234950E-03       4    8    1        -0.7408157133E-02      0.1038582618E-01
          0                15           1             4    8     1      -0.6505199751E-04       4    8    1        -0.3836157043E-02      0.5367248143E-02

    ------------------------------------------------
       NWT REQUIRED           15 OUTER ITERATIONS 
       AND A TOTAL OF         29 INNER ITERATIONS.
    ------------------------------------------------

 NO OUTPUT CONTROL FOR STRESS PERIOD   33   TIME STEP   25
 
 SOLVING FOR HEAD 
                                                   Max.-Head-Change                         Max.-Flux-Residual
  Residual-Control   Outer-Iter.   Inner-Iter.     Column Row Layer    Maximum-Head-Change  Column Row Layer    Maximum-Flux-Residual          L2-NORM 
          0                 1           2             4    7     1       0.2868838661E+00       4    7    1         0.1503230823E+02      0.3227630030E+02
          0                 2           2             5    8     1      -0.1449157007E+00       5    8    1        -0.7858665304E+01      0.1401530557E+02
          0                 3           2             5    8     1       0.1364059980E+00       5    8    1         0.7562035856E+01      0.1505854127E+02
          0                 4           2             5    8     1      -0.1536284209E+00       5    8    1        -0.8769773182E+01      0.1697204048E+02
          0                 5           2             4    6     1      -0.4752836270E-01       4    6    1        -0.2775188224E+01      0.4604886687E+01
          0                 6           2             4    6     1      -0.2463927481E-01       4    6    1        -0.1451996951E+01      0.2093644318E+01
          0                 7           2             4    6     1      -0.1273002449E-01       4    6    1        -0.7525474431E+00      0.1065040798E+01
          0                 8           2             4    8     1      -0.6581041056E-02       4    6    1        -0.3887696120E+00      0.5496174959E+00
          0                 9           2             4    8     1      -0.3408345219E-02       4    8    1        -0.2009892999E+00      0.2840345988E+00
          0                10           2             4    8     1      -0.1765050743E-02       4    8    1        -0.1040905840E+00      0.1467923992E+00
                                                   Max.-Head-Change                         Max.-Flux-Residual
  Residual-Control   Outer-Iter.   Inner-Iter.     Column Row Layer    Maximum-Head-Change  Column Row Layer    Maximum-Flux-Residual          L2-NORM 
          0                11           2             4    8     1      -0.9140196009E-03       4    8    1        -0.5390337707E-01      0.7586123619E-01
          0                12           2             4    8     1      -0.4733098127E-03       4    8    1        -0.2791294744E-01      0.3920375699E-01
          0                13           2             4    8     1      -0.2450922795E-03       4    8    1        -0.1445397466E-01      0.2025964933E-01
          0                14           2             4    8     1      -0.1269137646E-03       4    8    1        -0.7484504799E-02      0.1046971023E-01
          0                15           1             4    8     1      -0.6571781037E-04       4    8    1        -0.3875554549E-02      0.5410490525E-02

    ------------------------------------------------
       NWT REQUIRED           15 OUTER ITERATIONS 
       AND A TOTAL OF         29 INNER ITERATIONS.
    ------------------------------------------------

 NO OUTPUT CONTROL FOR STRESS PERIOD   33   TIME STEP   26
 
 SOLVING FOR HEAD 
                                                   Max.-Head-Change                         Max.-Flux-Residual
  Residual-Control   Outer-Iter.   Inner-Iter.     Column Row Layer    Maximum-Head-Change  Column Row Layer    Maximum-Flux-Residual          L2-NORM 
          0                 1           2             4    7     1       0.2867984938E+00       4    7    1         0.1504049491E+02      0.3175347434E+02
          0                 2           2             5    8     1      -0.1464937382E+00       5    8    1        -0.7961657491E+01      0.1291283722E+02
          0                 3           2             5    8     1       0.1362808791E+00       5    8    1         0.7571847207E+01      0.1424266374E+02
          0                 4           2             5    8     1      -0.1537018226E+00       5    8    1        -0.8769965098E+01      0.1693104956E+02
          0                 5           2             5    6     1      -0.4922695531E-01       5    6    1        -0.2892767870E+01      0.5001512126E+01
          0                 6           2             4    6     1      -0.2088441774E-01       4    6    1        -0.1225926831E+01      0.1837521962E+01
          0                 7           2             4    6     1      -0.1080527895E-01       4    6    1        -0.6379245132E+00      0.8952102924E+00
          0                 8           2             4    6     1      -0.5578618688E-02       4    6    1        -0.3299991998E+00      0.4595083798E+00
          0                 9           2             4    6     1      -0.2878034580E-02       4    6    1        -0.1703624009E+00      0.2373230499E+00
          0                10           2             4    6     1      -0.1484402716E-02       4    6    1        -0.8788752434E-01      0.1226372808E+00
                                                   Max.-Head-Change                         Max.-Flux-Residual
  Residual-Control   Outer-Iter.   Inner-Iter.     Column Row Layer    Maximum-Head-Change  Column Row Layer    Maximum-Flux-Residual          L2-NORM 
          0                11           2             4    6     1      -0.7655363730E-03       4    6    1        -0.4532856804E-01      0.6337278656E-01
          0                12           2             4    6     1      -0.3947873468E-03       4    6    1        -0.2337635758E-01      0.3274703647E-01
          0                13           2             4    6     1      -0.2035881886E-03       4    6    1        -0.1205495505E-01      0.1692138604E-01
          0                14           2             4    6     1      -0.1049873308E-03       4    6    1        -0.6216508370E-02      0.8743748861E-02
          0                15           1             4    6     1      -0.5413987054E-04       4    6    1        -0.3205697135E-02      0.4518126858E-02

    ------------------------------------------------
       NWT REQUIRED           15 OUTER ITERATIONS 
       AND A TOTAL OF         29 INNER ITERATIONS.
    ------------------------------------------------

 NO OUTPUT CONTROL FOR STRESS PERIOD   33   TIME STEP   27
 
 SOLVING FOR HEAD 
                                                   Max.-Head-Change                         Max.-Flux-Residual
  Residual-Control   Outer-Iter.   Inner-Iter.     Column Row Layer    Maximum-Head-Change  Column Row Layer    Maximum-Flux-Residual          L2-NORM 
          0                 1           2             4    7     1       0.2822687442E+00       4    7    1         0.1502610946E+02      0.2841572718E+02
          0                 2           2             4    8     1      -0.1578469811E+00       4    8    1        -0.8406084999E+01      0.1510240474E+02
          0                 3           2             5    8     1       0.1367113567E+00       5    8    1         0.7581167640E+01      0.1454622628E+02
          0                 4           2             5    8     1      -0.1541127398E+00       5    8    1        -0.8768827715E+01      0.1740117530E+02
          0                 5           2             4    7     1      -0.5425021614E-01       4    7    1        -0.3157873300E+01      0.4887635094E+01
          0                 6           2             5    6     1      -0.2558828989E-01       5    6    1        -0.1530011089E+01      0.1864995028E+01
          0                 7           2             5    6     1      -0.1304775233E-01       5    6    1        -0.7812526324E+00      0.8166302240E+00
          0                 8           2             5    6     1      -0.6650629296E-02       5    6    1        -0.3983468402E+00      0.4082872652E+00
          0                 9           2             5    6     1      -0.3389971886E-02       5    6    1        -0.2030372683E+00      0.2082612807E+00
          0                10           2             5    6     1      -0.1728222200E-02       5    6    1        -0.1034905683E+00      0.1065260783E+00
                                                   Max.-Head-Change                         Max.-Flux-Residual
  Residual-Control   Outer-Iter.   Inner-Iter.     Column Row Layer    Maximum-Head-Change  Column Row Layer    Maximum-Flux-Residual          L2-NORM 
          0                11           2             5    6     1      -0.8812455619E-03       5    6    1        -0.5275911977E-01      0.5452900776E-01
          0                12           2             5    6     1      -0.4494664582E-03       5    6    1        -0.2690226341E-01      0.2792739355E-01
          0                13           2             5    6     1      -0.2293001547E-03       5    6    1        -0.1372092326E-01      0.1431059269E-01
          0                14           2             5    6     1      -0.1170091637E-03       5    6    1        -0.6999784617E-02      0.7336841429E-02
          0                15           1             5    6     1      -0.5972344628E-04       5    6    1        -0.3571860899E-02      0.3763430834E-02

    ------------------------------------------------
       NWT REQUIRED           15 OUTER ITERATIONS 
       AND A TOTAL OF         29 INNER ITERATIONS.
    ------------------------------------------------

 NO OUTPUT CONTROL FOR STRESS PERIOD   33   TIME STEP   28
 
 SOLVING FOR HEAD 
                                                   Max.-Head-Change                         Max.-Flux-Residual
  Residual-Control   Outer-Iter.   Inner-Iter.     Column Row Layer    Maximum-Head-Change  Column Row Layer    Maximum-Flux-Residual          L2-NORM 
          0                 1           2             4    7     1       0.2708238258E+00       4    7    1         0.1469373215E+02      0.2548529626E+02
          0                 2           2             5    8     1      -0.1513473889E+00       5    8    1        -0.8117295010E+01      0.1677954198E+02
          0                 3           2             4    8     1       0.1386215092E+00       5    8    1         0.7583892303E+01      0.1650716078E+02
          0                 4           2             4    8     1      -0.1565431533E+00       5    7    1        -0.8769081656E+01      0.1909940201E+02
          0                 5           2             5    6     1      -0.4736988380E-01       5    6    1        -0.2833470207E+01      0.3473887012E+01
          0                 6           2             5    6     1      -0.2412397844E-01       5    6    1        -0.1446303558E+01      0.1487844029E+01
          0                 7           2             5    6     1      -0.1226491952E-01       5    6    1        -0.7364824235E+00      0.7394304665E+00
          0                 8           2             5    6     1      -0.6231872524E-02       5    6    1        -0.3744145667E+00      0.3746573036E+00
          0                 9           2             5    6     1      -0.3165750576E-02       5    6    1        -0.1902356253E+00      0.1902644730E+00
          0                10           2             5    6     1      -0.1608044742E-02       5    6    1        -0.9663606121E-01      0.9664215398E-01
                                                   Max.-Head-Change                         Max.-Flux-Residual
  Residual-Control   Outer-Iter.   Inner-Iter.     Column Row Layer    Maximum-Head-Change  Column Row Layer    Maximum-Flux-Residual          L2-NORM 
          0                11           2             5    6     1      -0.8167776389E-03       5    6    1        -0.4908528832E-01      0.4908738249E-01
          0                12           2             5    6     1      -0.4148597341E-03       5    6    1        -0.2493149303E-01      0.2493241101E-01
          0                13           2             5    6     1      -0.2107138657E-03       5    6    1        -0.1266301622E-01      0.1266345841E-01
          0                14           2             5    6     1      -0.1070237762E-03       5    6    1        -0.6431621815E-02      0.6431842221E-02
          0                15           1             5    6     1      -0.5435795212E-04       5    6    1        -0.3266624327E-02      0.3266735518E-02

    ------------------------------------------------
       NWT REQUIRED           15 OUTER ITERATIONS 
       AND A TOTAL OF         29 INNER ITERATIONS.
    ------------------------------------------------

 NO OUTPUT CONTROL FOR STRESS PERIOD   33   TIME STEP   29
 
 SOLVING FOR HEAD 
                                                   Max.-Head-Change                         Max.-Flux-Residual
  Residual-Control   Outer-Iter.   Inner-Iter.     Column Row Layer    Maximum-Head-Change  Column Row Layer    Maximum-Flux-Residual          L2-NORM 
          0                 1           2             4    6     1       0.2429714748E+00       4    6    1         0.1311252081E+02      0.1913056072E+02
          0                 2           2             5    8     1      -0.1519290112E+00       5    8    1        -0.8146027141E+01      0.1875967194E+02
          0                 3           2             4    7     1       0.1402735777E+00       5    8    1         0.7586748175E+01      0.1722560095E+02
          0                 4           2             4    7     1      -0.1583735479E+00       5    7    1        -0.8767095063E+01      0.2034530539E+02
          0                 5           2             4    6     1      -0.2293009579E-01       4    6    1        -0.1345247904E+01      0.2024857413E+01
          0                 6           2             4    6     1      -0.4138920036E-02       4    6    1        -0.2418321887E+00      0.3377750068E+00
          0                 7           2             4    6     1      -0.7468862172E-03       4    6    1        -0.4365749905E-01      0.6053572206E-01
          0                 8           2             4    6     1      -0.1347458123E-03       4    6    1        -0.7877780379E-02      0.1085118298E-01
          0                 9           1             4    6     1      -0.2430377567E-04       4    6    1        -0.1421136479E-02      0.1945171479E-02

    ------------------------------------------------
       NWT REQUIRED            9 OUTER ITERATIONS 
       AND A TOTAL OF         17 INNER ITERATIONS.
    ------------------------------------------------

 NO OUTPUT CONTROL FOR STRESS PERIOD   33   TIME STEP   30



 STREAM LISTING     PERIOD     33   STEP       30

 LAYER ROW COL. STREAM  RCH.  FLOW INTO     FLOW TO   FLOW OUT OF   OVRLND.     DIRECT     STREAM       STREAM     STREAM     STREAM   STREAMBED  STREAMBED
                SEG.NO.  NO.  STRM. RCH.    AQUIFER    STRM. RCH.    RUNOFF     PRECIP       ET          HEAD       DEPTH      WIDTH   CONDCTNC.   GRADIENT

   1    1    1     1     1    4.5749E+01  3.2289E-01   4.5426E+01  0.000E+00  0.000E+00  0.000E+00  1.09442E+03  1.372E+00  1.641E+01  7.386E-02  1.457E+00
   1    2    2     1     2    4.5426E+01  5.0022E-01   4.4925E+01  0.000E+00  0.000E+00  0.000E+00  1.08943E+03  1.369E+00  1.636E+01  1.145E-01  1.456E+00
   1    3    3     1     3    4.4925E+01  4.2678E-01   4.4499E+01  0.000E+00  0.000E+00  0.000E+00  1.08378E+03  1.366E+00  1.629E+01  9.776E-02  1.455E+00
   1    3    4     1     4    4.4499E+01  3.9314E-01   4.4106E+01  0.000E+00  0.000E+00  0.000E+00  1.07877E+03  1.363E+00  1.624E+01  9.011E-02  1.454E+00
   1    4    5     2     1    4.2106E+01  3.6245E-01   4.1743E+01  0.000E+00  0.000E+00  0.000E+00  1.07358E+03  1.647E+00  1.200E+01  7.800E-02  1.549E+00
   1    5    6     2     2    4.1743E+01  2.7835E-01   4.1465E+01  0.000E+00  0.000E+00  0.000E+00  1.06815E+03  1.639E+00  1.200E+01  6.000E-02  1.546E+00
   1    6    6     2     3    4.1465E+01  2.7796E-01   4.1187E+01  0.000E+00  0.000E+00  0.000E+00  1.06343E+03  1.633E+00  1.200E+01  6.000E-02  1.544E+00
   1    7    6     2     4    4.1187E+01  2.7756E-01   4.0909E+01  0.000E+00  0.000E+00  0.000E+00  1.05870E+03  1.626E+00  1.200E+01  6.000E-02  1.542E+00
   1    8    6     2     5    4.0909E+01  2.7716E-01   4.0632E+01  0.000E+00  0.000E+00  0.000E+00  1.05398E+03  1.619E+00  1.200E+01  6.000E-02  1.540E+00
   1    3    5     3     1    2.0000E+00  2.8252E-01   1.7175E+00  0.000E+00  0.000E+00  0.000E+00  1.07555E+03  1.909E+00  9.636E+00  7.227E-02  1.955E+00
   1    3    6     3     2    1.7175E+00  2.4905E-01   1.4684E+00  0.000E+00  0.000E+00  0.000E+00  1.07264E+03  1.727E+00  8.909E+00  6.682E-02  1.864E+00
   1    3    7     3     3    1.4684E+00  1.9718E-01   1.2712E+00  0.000E+00  0.000E+00  0.000E+00  1.06987E+03  1.555E+00  8.218E+00  5.547E-02  1.777E+00
   1    4    8     3     4    1.2712E+00  2.2567E-01   1.0456E+00  0.000E+00  0.000E+00  0.000E+00  1.06682E+03  1.364E+00  7.455E+00  6.709E-02  1.682E+00
   1    5    8     3     5    1.0456E+00  1.5790E-01   8.8768E-01  0.000E+00  0.000E+00  0.000E+00  1.06362E+03  1.164E+00  6.655E+00  4.991E-02  1.582E+00
   1    6    8     3     6    8.8768E-01  5.5980E-02   8.3170E-01  0.000E+00  0.000E+00  0.000E+00  1.06158E+03  1.036E+00  6.145E+00  1.844E-02  1.518E+00
   1    5   10     4     1    1.0000E+01  9.0919E-02   9.9091E+00  0.000E+00  0.000E+00  0.000E+00  1.07836E+03  6.368E-01  1.000E+01  2.500E-02  1.212E+00
   1    5    9     4     2    9.9091E+00  1.8158E-01   9.7275E+00  0.000E+00  0.000E+00  0.000E+00  1.07154E+03  6.315E-01  1.000E+01  5.000E-02  1.211E+00
   1    6    8     4     3    9.7275E+00  1.2689E-01   9.6006E+00  0.000E+00  0.000E+00  0.000E+00  1.06381E+03  6.256E-01  1.000E+01  3.500E-02  1.209E+00
   1    6    8     5     1    1.0432E+01  2.2686E-01   1.0205E+01  0.000E+00  0.000E+00  0.000E+00  1.05868E+03  6.790E-01  1.542E+01  6.166E-02  1.226E+00
   1    7    7     5     2    1.0205E+01  2.7894E-01   9.9265E+00  0.000E+00  0.000E+00  0.000E+00  1.05417E+03  6.732E-01  1.519E+01  7.594E-02  1.224E+00
   1    8    7     5     3    9.9265E+00  1.9221E-01   9.7343E+00  0.000E+00  0.000E+00  0.000E+00  1.04992E+03  6.676E-01  1.497E+01  5.241E-02  1.223E+00
   1    8    6     5     4    9.7343E+00  1.3577E-01   9.5985E+00  0.000E+00  0.000E+00  0.000E+00  1.04691E+03  6.637E-01  1.482E+01  3.706E-02  1.221E+00
   1    9    6     6     1    9.5985E+00  2.2097E-01   9.3776E+00  0.000E+00  0.000E+00  0.000E+00  1.04341E+03  6.828E-01  1.200E+01  6.000E-02  1.228E+00
   1   10    7     6     2    9.3776E+00  2.2039E-01   9.1572E+00  0.000E+00  0.000E+00  0.000E+00  1.03885E+03  6.732E-01  1.200E+01  6.000E-02  1.224E+00
   1   11    7     6     3    9.1572E+00  2.1981E-01   8.9374E+00  0.000E+00  0.000E+00  0.000E+00  1.03430E+03  6.636E-01  1.200E+01  6.000E-02  1.221E+00
   1   12    7     6     4    8.9374E+00  2.1923E-01   8.7181E+00  0.000E+00  0.000E+00  0.000E+00  1.02974E+03  6.539E-01  1.200E+01  6.000E-02  1.218E+00
   1   13    7     6     5    8.7181E+00 -1.0782E-01   8.8260E+00  0.000E+00  0.000E+00  0.000E+00  1.02656E+03  6.514E-01  1.200E+01  2.400E-01 -1.498E-01
   1   14    9     7     1    1.5000E+02  1.3477E+00   1.4865E+02  0.000E+00  0.000E+00  0.000E+00  1.03987E+03  2.288E+00  5.529E+01  5.593E-01  8.032E-01
   1   13    8     7     2    1.4865E+02  1.8542E+00   1.4680E+02  0.000E+00  0.000E+00  0.000E+00  1.03478E+03  2.279E+00  5.526E+01  6.148E-01  1.005E+00
   1   13    7     7     3    1.4680E+02  1.4965E+00   1.4530E+02  0.000E+00  0.000E+00  0.000E+00  1.02969E+03  2.270E+00  5.522E+01  5.584E-01  8.933E-01
   1   13    6     8     1    1.5413E+02  8.4939E-01   1.5328E+02  0.000E+00  0.000E+00  0.000E+00  1.02472E+03  2.843E+00  4.122E+01  4.200E-01  6.741E-01
   1   13    5     8     2    1.5328E+02  1.2148E-01   1.5316E+02  0.000E+00  0.000E+00  0.000E+00  1.01846E+03  2.839E+00  4.117E+01  4.195E-01  9.652E-02
   1   13    4     8     3    1.5316E+02 -2.5953E+00   1.5575E+02  0.000E+00  0.000E+00  0.000E+00  1.01222E+03  2.848E+00  4.129E+01  4.208E+00 -2.056E-01
   1   13    3     8     4    1.5575E+02 -3.7159E+00   1.5947E+02  0.000E+00  0.000E+00  0.000E+00  1.00599E+03  2.870E+00  4.161E+01  4.240E+00 -2.921E-01
   1   13    2     8     5    1.5947E+02 -2.6021E+00   1.6207E+02  0.000E+00  0.000E+00  0.000E+00  9.99766E+02  2.891E+00  4.192E+01  4.272E+00 -2.030E-01
   1   13    1     8     6    1.6207E+02 -1.9999E+00   1.6407E+02  0.000E+00  0.000E+00  0.000E+00  9.94781E+02  2.906E+00  4.214E+01  2.577E+00 -2.587E-01
   1    8    6     9     1    4.0632E+01  0.0000E+00   4.0632E+01  0.000E+00  0.000E+00  0.000E+00  1.08401E+03  5.255E+00  4.000E+00  0.000E+00  2.752E+00
   1    8    5     9     2    4.0632E+01  0.0000E+00   4.0632E+01  0.000E+00  0.000E+00  0.000E+00  1.08351E+03  5.255E+00  4.000E+00  0.000E+00  2.752E+00





UNSATURATED ZONE PACKAGE VOLUMETRIC BUDGET FOR  TIME STEP    30 STRESS PERIOD   33
  ------------------------------------------------------------------------------



     CUMULATIVE VOLUMES      L**3       RATES FOR THIS TIME STEP      L**3/T
     ------------------                 ------------------------

           IN:                                      IN:
           ---                                      ---
        INFILTRATION =  4230850933.2482          INFILTRATION =          99.6697

          OUT:                                     OUT:
          ----                                     ----
              UZF ET =  1249674617.5335                UZF ET =          49.5675
        UZF RECHARGE =  2610234176.4790          UZF RECHARGE =          34.7151

            IN - OUT =   370942139.2357              IN - OUT =          15.3871

          STORAGE:                                 STORAGE:
          --------                                 --------
      STORAGE CHANGE =   370934638.1856        STORAGE CHANGE =          15.3871

 PERCENT DISCREPANCY IS DIFFERENCE BETWEEN IN-OUT MINUS CHANGE IN STORAGE
 DIVIDED BY THE AVERAGE OF IN AND OUT TIMES 100

 PERCENT DISCREPANCY =           0.00     PERCENT DISCREPANCY =           0.00






1
  VOLUMETRIC BUDGET FOR AGRICULTURAL FIELDS AT  END OF TIME STEP   30, STRESS PERIOD  33
  ------------------------------------------------------------------------------

     CUMULATIVE VOLUMES      L**3       RATES FOR THIS TIME STEP      L**3/T
     ------------------                 ------------------------

           IN:                                      IN:
           ---                                      ---
           AG WELLS      =  2651750144.0000             AG WELLS      =          58.1893
      DIVERSION SEGMENTS =  1507677440.0000        DIVERSION SEGMENTS =          40.6321
           GW IRRIGATION =           0.0000             GW IRRIGATION =           0.0000
           SW IRRIGATION =           0.0000             SW IRRIGATION =           0.0000
        SYSTEM LOSSES GW =           0.0000          SYSTEM LOSSES GW =           0.0000
        SYSTEM LOSSES SW =           0.0000          SYSTEM LOSSES SW =           0.0000

                TOTAL IN =  4159427584.0000                  TOTAL IN =          98.8214

          OUT:                                     OUT:
          ----                                     ----
           AG WELLS      =           0.0000             AG WELLS      =           0.0000
      DIVERSION SEGMENTS =           0.0000        DIVERSION SEGMENTS =           0.0000
           GW IRRIGATION =  2651750144.0000             GW IRRIGATION =          58.1893
           SW IRRIGATION =  1507705216.0000             SW IRRIGATION =          40.6329
        SYSTEM LOSSES GW =           0.0000          SYSTEM LOSSES GW =           0.0000
        SYSTEM LOSSES SW =           0.0000          SYSTEM LOSSES SW =           0.0000

               TOTAL OUT =  4159455232.0000                 TOTAL OUT =          98.8222

                IN - OUT =      -27648.0000                  IN - OUT =      -8.1635E-04

     PERCENT DISCREPANCY =          -0.00         PERCENT DISCREPANCY =          -0.00



1
  VOLUMETRIC BUDGET FOR ENTIRE MODEL AT END OF TIME STEP   30, STRESS PERIOD  33
  ------------------------------------------------------------------------------

     CUMULATIVE VOLUMES      L**3       RATES FOR THIS TIME STEP      L**3/T
     ------------------                 ------------------------

           IN:                                      IN:
           ---                                      ---
             STORAGE     =  2517657600.0000               STORAGE     =          50.5364
       CONSTANT HEAD     =           0.0000         CONSTANT HEAD     =           0.0000
     HEAD DEP BOUNDS     =    24105094.0000       HEAD DEP BOUNDS     =           0.2866
      STREAM LEAKAGE     =  1010562176.0000        STREAM LEAKAGE     =          12.0676
        UZF RECHARGE     =  2610233088.0000          UZF RECHARGE     =          34.7151
               GW ET     =           0.0000                 GW ET     =           0.0000
     SURFACE LEAKAGE     =           0.0000       SURFACE LEAKAGE     =           0.0000
           AG WELLS      =           0.0000             AG WELLS      =           0.0000

                TOTAL IN =  6162557952.0000                  TOTAL IN =          97.6057

          OUT:                                     OUT:
          ----                                     ----
             STORAGE     =  2578747648.0000               STORAGE     =          28.1088
       CONSTANT HEAD     =           0.0000         CONSTANT HEAD     =           0.0000
     HEAD DEP BOUNDS     =    24395152.0000       HEAD DEP BOUNDS     =           0.2872
      STREAM LEAKAGE     =   907555008.0000        STREAM LEAKAGE     =          11.0209
        UZF RECHARGE     =           0.0000          UZF RECHARGE     =           0.0000
               GW ET     =      151061.6094                 GW ET     =           0.0000
     SURFACE LEAKAGE     =           0.0000       SURFACE LEAKAGE     =           0.0000
           AG WELLS      =  2651750144.0000             AG WELLS      =          58.1893

               TOTAL OUT =  6162598912.0000                 TOTAL OUT =          97.6062

                IN - OUT =      -40960.0000                  IN - OUT =      -4.8828E-04

     PERCENT DISCREPANCY =          -0.00         PERCENT DISCREPANCY =          -0.00






         TIME SUMMARY AT END OF TIME STEP   30 IN STRESS PERIOD   33
                    SECONDS     MINUTES      HOURS       DAYS        YEARS
                    -----------------------------------------------------------
   TIME STEP LENGTH  87667.      1461.1      24.352      1.0147     2.77799E-03
 STRESS PERIOD TIME 2.63000E+06  43833.      730.56      30.440     8.33397E-02
         TOTAL TIME 8.42463E+07 1.40410E+06  23402.      975.07      2.6696    
1
1
                            STRESS PERIOD NO.   34, LENGTH =   2630000.    
                            -----------------------------------------------

                              NUMBER OF TIME STEPS =    30

                               MULTIPLIER FOR DELT =     1.000

                            INITIAL TIME STEP SIZE =   87666.66    

 REUSING NON-PARAMETER GHB CELLS FROM LAST STRESS PERIOD

      2 GHB CELLS

 REUSING STREAM SEGMENT DATA FROM LAST STRESS PERIOD



            AREAL INFILTRATION RATE
 READING ON UNIT   19 WITH FORMAT: (FREE)              

            1           2           3           4           5           6           7           8           9          10
 ........................................................................................................................
   1   1.0000E-10  2.0000E-10   0.000       0.000       0.000       0.000       0.000       0.000       0.000       0.000    
   2   2.0000E-10  1.0000E-10  2.0000E-10   0.000       0.000      8.0000E-10  8.0000E-10  5.0000E-10   0.000       0.000    
   3    0.000      5.0000E-10  1.0000E-10  1.0000E-10  8.0000E-10  8.0000E-10  5.0000E-10  5.0000E-10   0.000       0.000    
   4   8.0000E-10  5.0000E-10  1.0000E-10  1.0000E-10  1.0000E-10  1.0000E-10  1.0000E-10  1.0000E-10  2.0000E-10   0.000    
   5   8.0000E-10  5.0000E-10  1.0000E-10  1.0000E-10  1.0000E-10  1.0000E-10  1.0000E-10  1.0000E-10  1.0000E-10  1.0000E-10
   6   8.0000E-10  5.0000E-10  5.0000E-10  2.0000E-10  2.0000E-10  1.0000E-10  1.0000E-10  1.0000E-10  1.0000E-10  5.0000E-10
   7   8.0000E-10  5.0000E-10  5.0000E-10  2.0000E-10  2.0000E-10  1.0000E-10  1.0000E-10  2.0000E-10  2.0000E-10   0.000    
   8    0.000      5.0000E-10  5.0000E-10  2.0000E-10  2.0000E-10  1.0000E-10  1.0000E-10  2.0000E-10  5.0000E-10   0.000    
   9    0.000      5.0000E-10  5.0000E-10  2.0000E-10  2.0000E-10  1.0000E-10  1.0000E-10  2.0000E-10  5.0000E-10   0.000    
  10    0.000      5.0000E-10  5.0000E-10  2.0000E-10  2.0000E-10  1.0000E-10  1.0000E-10  2.0000E-10  5.0000E-10  8.0000E-10
  11    0.000      1.0000E-10  1.0000E-10  1.0000E-10  1.0000E-10  1.0000E-10  1.0000E-10  2.0000E-10  5.0000E-10   0.000    
  12   1.0000E-10  1.0000E-10  1.0000E-10  1.0000E-10  1.0000E-10  1.0000E-10  1.0000E-10  1.0000E-10  2.0000E-10   0.000    
  13   1.0000E-10  1.0000E-10  2.0000E-10  2.0000E-10  2.0000E-10  2.0000E-10  2.0000E-10  1.0000E-10  1.0000E-10   0.000    
  14    0.000      2.0000E-10  5.0000E-10  5.0000E-10  5.0000E-10  5.0000E-10  5.0000E-10  2.0000E-10  1.0000E-10   0.000    
  15    0.000       0.000      8.0000E-10  8.0000E-10  8.0000E-10  8.0000E-10   0.000       0.000       0.000       0.000    

                  ET RATE =  7.500000E-08

 USING ET EXTINCTION DEPTH FROM PREVIOUS STRESS PERIOD. CURRENT PERIOD IS:      34

 USING EXTINCTION WATER CONTENT FROM PREVIOUS STRESS PERIOD. CURRENT PERIOD IS:      34

 USING AIR ENTRY PRESSURE FROM PREVIOUS STRESS PERIOD. CURRENT PERIOD IS:      34

 USING ROOT PRESSURE HEAD FROM PREVIOUS STRESS PERIOD. CURRENT PERIOD IS:      34

 USING ROOT ACTIVITY FROM PREVIOUS STRESS PERIOD. CURRENT PERIOD IS:      34

 PROCESSING AG STRESS PERIOD DATA

 READING AG STRESS PERIOD DATA

 READING IRRIGATION SEGMENT

 READING IRRIGATION WELL

 READING SUPPLEMENTAL WELL

 END PROCESSING AG STRESS PERIOD DATA OPTIONS
 
 SOLVING FOR HEAD 
                                                   Max.-Head-Change                         Max.-Flux-Residual
  Residual-Control   Outer-Iter.   Inner-Iter.     Column Row Layer    Maximum-Head-Change  Column Row Layer    Maximum-Flux-Residual          L2-NORM 
          0                 1           2             4    6     1       0.2328451092E+00       4    6    1         0.1278073575E+02      0.1637516380E+02
          0                 2           2             4    6     1       0.2489662427E-01       4    6    1         0.1350434017E+01      0.1693837259E+01
          0                 3           2             4    6     1       0.2662989964E-02       4    6    1         0.1457876369E+00      0.1622490742E+00
          0                 4           2             4    6     1       0.2848432919E-03       4    6    1         0.1551220577E-01      0.1579689218E-01
          0                 5           1             4    6     1       0.3046796705E-04       4    6    1         0.1661543588E-02      0.1662037091E-02

    ------------------------------------------------
       NWT REQUIRED            5 OUTER ITERATIONS 
       AND A TOTAL OF          9 INNER ITERATIONS.
    ------------------------------------------------

 NO OUTPUT CONTROL FOR STRESS PERIOD   34   TIME STEP    1
 
 SOLVING FOR HEAD 
                                                   Max.-Head-Change                         Max.-Flux-Residual
  Residual-Control   Outer-Iter.   Inner-Iter.     Column Row Layer    Maximum-Head-Change  Column Row Layer    Maximum-Flux-Residual          L2-NORM 
          0                 1           2             4    6     1       0.2180269546E+00       4    6    1         0.1195856493E+02      0.1540683366E+02
          0                 2           2             4    6     1       0.2331337866E-01       4    6    1         0.1265404375E+01      0.1594986711E+01
          0                 3           2             4    6     1       0.2493373897E-02       4    6    1         0.1364551947E+00      0.1522987270E+00
          0                 4           2             4    6     1       0.2666715353E-03       4    6    1         0.1452562374E-01      0.1479806645E-01
          0                 5           1             4    6     1       0.2852113820E-04       4    6    1         0.1555433037E-02      0.1555926077E-02

    ------------------------------------------------
       NWT REQUIRED            5 OUTER ITERATIONS 
       AND A TOTAL OF          9 INNER ITERATIONS.
    ------------------------------------------------

 NO OUTPUT CONTROL FOR STRESS PERIOD   34   TIME STEP    2
 
 SOLVING FOR HEAD 
                                                   Max.-Head-Change                         Max.-Flux-Residual
  Residual-Control   Outer-Iter.   Inner-Iter.     Column Row Layer    Maximum-Head-Change  Column Row Layer    Maximum-Flux-Residual          L2-NORM 
          0                 1           2             4    6     1      -0.1269115984E+00       4    6    1        -0.6872489565E+01      0.1144337396E+02
          0                 2           2             4    6     1       0.1210414409E-01       4    6    1         0.6737213093E+00      0.1135983106E+01
          0                 3           2             4    6     1      -0.8242601193E-03       4    6    1        -0.4716136302E-01      0.7949803916E-01
          0                 4           1             4    6     1       0.3279801844E-04       4    6    1         0.1928898504E-02      0.3250195249E-02

    ------------------------------------------------
       NWT REQUIRED            4 OUTER ITERATIONS 
       AND A TOTAL OF          7 INNER ITERATIONS.
    ------------------------------------------------

 NO OUTPUT CONTROL FOR STRESS PERIOD   34   TIME STEP    3
 
 SOLVING FOR HEAD 
                                                   Max.-Head-Change                         Max.-Flux-Residual
  Residual-Control   Outer-Iter.   Inner-Iter.     Column Row Layer    Maximum-Head-Change  Column Row Layer    Maximum-Flux-Residual          L2-NORM 
          0                 1           2             4    6     1      -0.1220740905E+00       4    6    1        -0.6607347916E+01      0.1101137542E+02
          0                 2           2             5    8     1      -0.3354018760E-01       5    8    1        -0.1801172209E+01      0.3832340795E+01
          0                 3           2             4    7     1       0.3771135392E-01       5    8    1         0.2050223683E+01      0.4954366991E+01
          0                 4           2             4    7     1      -0.2568028030E-02       5    8    1        -0.1435549963E+00      0.3468624341E+00
          0                 5           1             4    7     1       0.1021841190E-03       5    8    1         0.5872705716E-02      0.1418996654E-01
          0                 6           1             4    7     1      -0.1259975134E-05       5    8    1        -0.7444162043E-04      0.1798914443E-03

    ------------------------------------------------
       NWT REQUIRED            6 OUTER ITERATIONS 
       AND A TOTAL OF         10 INNER ITERATIONS.
    ------------------------------------------------

 NO OUTPUT CONTROL FOR STRESS PERIOD   34   TIME STEP    4
 
 SOLVING FOR HEAD 
                                                   Max.-Head-Change                         Max.-Flux-Residual
  Residual-Control   Outer-Iter.   Inner-Iter.     Column Row Layer    Maximum-Head-Change  Column Row Layer    Maximum-Flux-Residual          L2-NORM 
          0                 1           2             4    6     1      -0.1172511148E+00       4    6    1        -0.6343177199E+01      0.1060005732E+02
          0                 2           2             4    6     1       0.1140419724E-01       4    6    1         0.6342393403E+00      0.1059722853E+01
          0                 3           2             4    7     1      -0.3412708000E-01       4    6    1        -0.1907055766E+01      0.4641176081E+01
          0                 4           2             4    7     1       0.3417395973E-01       4    6    1         0.1940649032E+01      0.4751592079E+01
          0                 5           2             4    7     1      -0.4214008147E-03       4    6    1        -0.2458296029E-01      0.6023839083E-01
          0                 6           1             4    7     1      -0.6197643486E-05       5    6    1        -0.3623710977E-03      0.8886565451E-03

    ------------------------------------------------
       NWT REQUIRED            6 OUTER ITERATIONS 
       AND A TOTAL OF         11 INNER ITERATIONS.
    ------------------------------------------------

 NO OUTPUT CONTROL FOR STRESS PERIOD   34   TIME STEP    5
 
 SOLVING FOR HEAD 
                                                   Max.-Head-Change                         Max.-Flux-Residual
  Residual-Control   Outer-Iter.   Inner-Iter.     Column Row Layer    Maximum-Head-Change  Column Row Layer    Maximum-Flux-Residual          L2-NORM 
          0                 1           2             4    6     1      -0.1126735750E+00       4    6    1        -0.6092559502E+01      0.1021250697E+02
          0                 2           2             4    6     1       0.1095893903E-01       4    6    1         0.6091843910E+00      0.1021098274E+01
          0                 3           2             4    7     1      -0.3413086730E-01       4    6    1        -0.1905475185E+01      0.4639878344E+01
          0                 4           2             4    7     1       0.3417720072E-01       4    6    1         0.1940757152E+01      0.4751964314E+01
          0                 5           2             4    7     1      -0.4214407830E-03       4    6    1        -0.2458432018E-01      0.6024323591E-01
          0                 6           1             4    7     1      -0.6198231121E-05       5    6    1        -0.3623963739E-03      0.8887131688E-03

    ------------------------------------------------
       NWT REQUIRED            6 OUTER ITERATIONS 
       AND A TOTAL OF         11 INNER ITERATIONS.
    ------------------------------------------------

 NO OUTPUT CONTROL FOR STRESS PERIOD   34   TIME STEP    6
 
 SOLVING FOR HEAD 
                                                   Max.-Head-Change                         Max.-Flux-Residual
  Residual-Control   Outer-Iter.   Inner-Iter.     Column Row Layer    Maximum-Head-Change  Column Row Layer    Maximum-Flux-Residual          L2-NORM 
          0                 1           2             4    6     1      -0.1083279980E+00       4    6    1        -0.5854703031E+01      0.9846954467E+01
          0                 2           2             4    6     1       0.1053639970E-01       4    6    1         0.5854049218E+00      0.9845964356E+00
          0                 3           2             4    7     1      -0.3413380923E-01       4    6    1        -0.1903976263E+01      0.4638633635E+01
          0                 4           2             4    7     1       0.3418028023E-01       4    6    1         0.1940860970E+01      0.4752319915E+01
          0                 5           2             4    7     1      -0.4214787587E-03       4    6    1        -0.2458560593E-01      0.6024785098E-01
          0                 6           1             4    7     1      -0.6198790081E-05       5    6    1        -0.3624199617E-03      0.8887987477E-03

    ------------------------------------------------
       NWT REQUIRED            6 OUTER ITERATIONS 
       AND A TOTAL OF         11 INNER ITERATIONS.
    ------------------------------------------------

 NO OUTPUT CONTROL FOR STRESS PERIOD   34   TIME STEP    7
 
 SOLVING FOR HEAD 
                                                   Max.-Head-Change                         Max.-Flux-Residual
  Residual-Control   Outer-Iter.   Inner-Iter.     Column Row Layer    Maximum-Head-Change  Column Row Layer    Maximum-Flux-Residual          L2-NORM 
          0                 1           2             4    6     1      -0.1042006240E+00       4    6    1        -0.5628895767E+01      0.9501474473E+01
          0                 2           2             4    6     1       0.1013500965E-01       4    6    1         0.5628297833E+00      0.9499051246E+00
          0                 3           2             4    7     1      -0.3413598527E-01       4    6    1        -0.1902554737E+01      0.4637440314E+01
          0                 4           2             4    7     1       0.3418321321E-01       4    6    1         0.1940961082E+01      0.4752660540E+01
          0                 5           2             4    7     1      -0.4215149283E-03       4    7    1        -0.2458746281E-01      0.6025224201E-01
          0                 6           1             4    7     1      -0.6199321709E-05       5    6    1        -0.3624433530E-03      0.8888642870E-03

    ------------------------------------------------
       NWT REQUIRED            6 OUTER ITERATIONS 
       AND A TOTAL OF         11 INNER ITERATIONS.
    ------------------------------------------------

 NO OUTPUT CONTROL FOR STRESS PERIOD   34   TIME STEP    8
 
 SOLVING FOR HEAD 
                                                   Max.-Head-Change                         Max.-Flux-Residual
  Residual-Control   Outer-Iter.   Inner-Iter.     Column Row Layer    Maximum-Head-Change  Column Row Layer    Maximum-Flux-Residual          L2-NORM 
          0                 1           2             4    6     1      -0.1002786113E+00       4    6    1        -0.5414421555E+01      0.9175178394E+01
          0                 2           2             4    6     1       0.9753576776E-02       4    6    1         0.5413874216E+00      0.9173091025E+00
          0                 3           2             4    7     1      -0.3413747276E-01       4    6    1        -0.1901206192E+01      0.4636296510E+01
          0                 4           2             4    7     1       0.3418601255E-01       4    6    1         0.1941057893E+01      0.4752987668E+01
          0                 5           2             4    7     1      -0.4215494495E-03       4    7    1        -0.2458944878E-01      0.6025657752E-01
          0                 6           1             4    7     1      -0.6199829365E-05       5    6    1        -0.3624657884E-03      0.8889562472E-03

    ------------------------------------------------
       NWT REQUIRED            6 OUTER ITERATIONS 
       AND A TOTAL OF         11 INNER ITERATIONS.
    ------------------------------------------------

 NO OUTPUT CONTROL FOR STRESS PERIOD   34   TIME STEP    9
 
 SOLVING FOR HEAD 
                                                   Max.-Head-Change                         Max.-Flux-Residual
  Residual-Control   Outer-Iter.   Inner-Iter.     Column Row Layer    Maximum-Head-Change  Column Row Layer    Maximum-Flux-Residual          L2-NORM 
          0                 1           2             4    6     1      -0.9655021119E-01       4    6    1        -0.5210626499E+01      0.8866717925E+01
          0                 2           2             4    6     1       0.9390973127E-02       4    6    1         0.5210125013E+00      0.8864500406E+00
          0                 3           2             4    7     1      -0.3413833466E-01       4    6    1        -0.1899926173E+01      0.4635198818E+01
          0                 4           2             4    7     1       0.3418868227E-01       4    6    1         0.1941151337E+01      0.4753301391E+01
          0                 5           2             4    7     1      -0.4215823722E-03       4    7    1        -0.2459133663E-01      0.6026058039E-01
          0                 6           1             4    7     1      -0.6200313946E-05       5    6    1        -0.3624874112E-03      0.8889918540E-03

    ------------------------------------------------
       NWT REQUIRED            6 OUTER ITERATIONS 
       AND A TOTAL OF         11 INNER ITERATIONS.
    ------------------------------------------------

 NO OUTPUT CONTROL FOR STRESS PERIOD   34   TIME STEP   10
 
 SOLVING FOR HEAD 
                                                   Max.-Head-Change                         Max.-Flux-Residual
  Residual-Control   Outer-Iter.   Inner-Iter.     Column Row Layer    Maximum-Head-Change  Column Row Layer    Maximum-Flux-Residual          L2-NORM 
          0                 1           2             4    6     1      -0.9300414663E-01       4    6    1        -0.5016885606E+01      0.8574823222E+01
          0                 2           2             4    6     1       0.9046098127E-02       4    6    1         0.5016425710E+00      0.8572691506E+00
          0                 3           2             4    7     1      -0.3413862916E-01       4    6    1        -0.1898710548E+01      0.4634144997E+01
          0                 4           2             4    7     1       0.3419122833E-01       4    6    1         0.1941241481E+01      0.4753602254E+01
          0                 5           2             4    7     1      -0.4216137697E-03       4    7    1        -0.2459313115E-01      0.6026462825E-01
          0                 6           1             4    7     1      -0.6200775676E-05       5    6    1        -0.3625082063E-03      0.8893016703E-03

    ------------------------------------------------
       NWT REQUIRED            6 OUTER ITERATIONS 
       AND A TOTAL OF         11 INNER ITERATIONS.
    ------------------------------------------------

 NO OUTPUT CONTROL FOR STRESS PERIOD   34   TIME STEP   11
 
 SOLVING FOR HEAD 
                                                   Max.-Head-Change                         Max.-Flux-Residual
  Residual-Control   Outer-Iter.   Inner-Iter.     Column Row Layer    Maximum-Head-Change  Column Row Layer    Maximum-Flux-Residual          L2-NORM 
          0                 1           2             4    6     1      -0.8962988338E-01       4    6    1        -0.4832614340E+01      0.8298344973E+01
          0                 2           2             4    6     1       0.8717929147E-02       4    6    1         0.4832192200E+00      0.8296291081E+00
          0                 3           2             4    7     1      -0.3413841831E-01       4    6    1        -0.1897555941E+01      0.4633133348E+01
          0                 4           2             4    7     1       0.3419366532E-01       4    6    1         0.1941328902E+01      0.4753891929E+01
          0                 5           2             4    7     1      -0.4216438226E-03       4    7    1        -0.2459484338E-01      0.6026823786E-01
          0                 6           1             4    7     1      -0.6201217691E-05       5    6    1        -0.3625282866E-03      0.8891126940E-03

    ------------------------------------------------
       NWT REQUIRED            6 OUTER ITERATIONS 
       AND A TOTAL OF         11 INNER ITERATIONS.
    ------------------------------------------------

 NO OUTPUT CONTROL FOR STRESS PERIOD   34   TIME STEP   12
 
 SOLVING FOR HEAD 
                                                   Max.-Head-Change                         Max.-Flux-Residual
  Residual-Control   Outer-Iter.   Inner-Iter.     Column Row Layer    Maximum-Head-Change  Column Row Layer    Maximum-Flux-Residual          L2-NORM 
          0                 1           2             4    6     1      -0.8641811447E-01       4    6    1        -0.4657296365E+01      0.8036235580E+01
          0                 2           2             4    6     1       0.8405561421E-02       4    6    1         0.4656908527E+00      0.8034250525E+00
          0                 3           2             4    7     1      -0.3413775099E-01       4    6    1        -0.1896458860E+01      0.4632161860E+01
          0                 4           2             4    7     1       0.3419599681E-01       4    6    1         0.1941413575E+01      0.4754170638E+01
          0                 5           2             4    7     1      -0.4216725737E-03       4    7    1        -0.2459647628E-01      0.6027185203E-01
          0                 6           1             4    7     1      -0.6201640439E-05       5    6    1        -0.3625476988E-03      0.8891858545E-03

    ------------------------------------------------
       NWT REQUIRED            6 OUTER ITERATIONS 
       AND A TOTAL OF         11 INNER ITERATIONS.
    ------------------------------------------------

 NO OUTPUT CONTROL FOR STRESS PERIOD   34   TIME STEP   13
 
 SOLVING FOR HEAD 
                                                   Max.-Head-Change                         Max.-Flux-Residual
  Residual-Control   Outer-Iter.   Inner-Iter.     Column Row Layer    Maximum-Head-Change  Column Row Layer    Maximum-Flux-Residual          L2-NORM 
          0                 1           2             4    6     1      -0.8335905313E-01       4    6    1        -0.4490389088E+01      0.7787492533E+01
          0                 2           2             4    6     1       0.8108043470E-02       4    6    1         0.4490032445E+00      0.7785568541E+00
          0                 3           2             4    7     1      -0.3413667404E-01       4    6    1        -0.1895415748E+01      0.4631228100E+01
          0                 4           2             4    7     1       0.3419822846E-01       4    6    1         0.1941495590E+01      0.4754438876E+01
          0                 5           2             4    7     1      -0.4217000942E-03       4    7    1        -0.2459803441E-01      0.6027532532E-01
          0                 6           1             4    7     1      -0.6202045265E-05       5    6    1        -0.3625664508E-03      0.8892282875E-03

    ------------------------------------------------
       NWT REQUIRED            6 OUTER ITERATIONS 
       AND A TOTAL OF         11 INNER ITERATIONS.
    ------------------------------------------------

 NO OUTPUT CONTROL FOR STRESS PERIOD   34   TIME STEP   14
 
 SOLVING FOR HEAD 
                                                   Max.-Head-Change                         Max.-Flux-Residual
  Residual-Control   Outer-Iter.   Inner-Iter.     Column Row Layer    Maximum-Head-Change  Column Row Layer    Maximum-Flux-Residual          L2-NORM 
          0                 1           2             5    8     1       0.1216903675E+00       5    8    1         0.6755371912E+01      0.1010323103E+02
          0                 2           2             5    8     1       0.1628045930E-01       5    8    1         0.8933476819E+00      0.1167122261E+01
          0                 3           2             4    7     1      -0.3413417331E-01       4    6    1        -0.1894423831E+01      0.4580697271E+01
          0                 4           2             4    7     1       0.3419755825E-01       4    6    1         0.1941575190E+01      0.4618252361E+01
          0                 5           2             5    8     1       0.5060246104E-02       5    8    1         0.2955945784E+00      0.3005666371E+00
          0                 6           1             5    8     1       0.9124722493E-03       5    8    1         0.5317941194E-01      0.5318342630E-01
          0                 7           1             5    8     1       0.1645315755E-03       5    8    1         0.9586628165E-02      0.9586973912E-02
          0                 8           1             5    8     1       0.2966606843E-04       5    8    1         0.1728418201E-02      0.1728524669E-02

    ------------------------------------------------
       NWT REQUIRED            8 OUTER ITERATIONS 
       AND A TOTAL OF         13 INNER ITERATIONS.
    ------------------------------------------------

 NO OUTPUT CONTROL FOR STRESS PERIOD   34   TIME STEP   15
 
 SOLVING FOR HEAD 
                                                   Max.-Head-Change                         Max.-Flux-Residual
  Residual-Control   Outer-Iter.   Inner-Iter.     Column Row Layer    Maximum-Head-Change  Column Row Layer    Maximum-Flux-Residual          L2-NORM 
          0                 1           2             5    8     1       0.1272314120E+00       5    8    1         0.7052479908E+01      0.1010648037E+02
          0                 2           2             5    8     1       0.4481444783E-01       5    8    1         0.2467795723E+01      0.2571724790E+01
          0                 3           2             4    7     1      -0.3412467072E-01       4    6    1        -0.1893479404E+01      0.4309353569E+01
          0                 4           2             4    7     1       0.3419909233E-01       4    6    1         0.1941652342E+01      0.4585985152E+01
          0                 5           2             5    8     1       0.1210782412E-01       5    8    1         0.7063243364E+00      0.7084226777E+00
          0                 6           1             5    8     1       0.5559328482E-02       5    8    1         0.3239810667E+00      0.3239818168E+00
          0                 7           1             5    8     1       0.2552546575E-02       5    8    1         0.1487450264E+00      0.1487460342E+00
          0                 8           1             5    8     1       0.1171979786E-02       5    8    1         0.6829401815E-01      0.6829454575E-01
          0                 9           1             5    8     1       0.5380983527E-03       5    8    1         0.3135594601E-01      0.3135619102E-01
          0                10           1             5    8     1       0.2470576431E-03       5    8    1         0.1439634953E-01      0.1439646215E-01
                                                   Max.-Head-Change                         Max.-Flux-Residual
  Residual-Control   Outer-Iter.   Inner-Iter.     Column Row Layer    Maximum-Head-Change  Column Row Layer    Maximum-Flux-Residual          L2-NORM 
          0                11           1             5    8     1       0.1134305432E-03       5    8    1         0.6609672513E-02      0.6609724216E-02
          0                12           1             5    8     1       0.5207830181E-04       5    8    1         0.3034607877E-02      0.3034631643E-02

    ------------------------------------------------
       NWT REQUIRED           12 OUTER ITERATIONS 
       AND A TOTAL OF         17 INNER ITERATIONS.
    ------------------------------------------------

 NO OUTPUT CONTROL FOR STRESS PERIOD   34   TIME STEP   16
 
 SOLVING FOR HEAD 
                                                   Max.-Head-Change                         Max.-Flux-Residual
  Residual-Control   Outer-Iter.   Inner-Iter.     Column Row Layer    Maximum-Head-Change  Column Row Layer    Maximum-Flux-Residual          L2-NORM 
          0                 1           2             5    8     1       0.1137406942E+00       5    8    1         0.6297337680E+01      0.9394736398E+01
          0                 2           2             5    8     1       0.4873046243E-01       5    8    1         0.2684947779E+01      0.2773937014E+01
          0                 3           2             4    7     1      -0.3412033952E-01       4    6    1        -0.1892579272E+01      0.4290961146E+01
          0                 4           2             4    7     1       0.3420131433E-01       4    6    1         0.1941727272E+01      0.4599625352E+01
          0                 5           2             5    8     1       0.1243131891E-01       5    8    1         0.7251933432E+00      0.7272363556E+00
          0                 6           1             5    8     1       0.5707713815E-02       5    8    1         0.3326361459E+00      0.3326368961E+00
          0                 7           1             5    8     1       0.2620609310E-02       5    8    1         0.1527148833E+00      0.1527159204E+00
          0                 8           1             5    8     1       0.1203199040E-02       5    8    1         0.7011490731E-01      0.7011544998E-01
          0                 9           1             5    8     1       0.5524179339E-03       5    8    1         0.3219114041E-01      0.3219139193E-01
          0                10           1             5    8     1       0.2536256373E-03       5    8    1         0.1477942674E-01      0.1477954239E-01
                                                   Max.-Head-Change                         Max.-Flux-Residual
  Residual-Control   Outer-Iter.   Inner-Iter.     Column Row Layer    Maximum-Head-Change  Column Row Layer    Maximum-Flux-Residual          L2-NORM 
          0                11           1             5    8     1       0.1164430628E-03       5    8    1         0.6785375722E-02      0.6785428907E-02
          0                12           1             5    8     1       0.5346002680E-04       5    8    1         0.3115195383E-02      0.3115219778E-02

    ------------------------------------------------
       NWT REQUIRED           12 OUTER ITERATIONS 
       AND A TOTAL OF         17 INNER ITERATIONS.
    ------------------------------------------------

 NO OUTPUT CONTROL FOR STRESS PERIOD   34   TIME STEP   17
 
 SOLVING FOR HEAD 
                                                   Max.-Head-Change                         Max.-Flux-Residual
  Residual-Control   Outer-Iter.   Inner-Iter.     Column Row Layer    Maximum-Head-Change  Column Row Layer    Maximum-Flux-Residual          L2-NORM 
          0                 1           2             5    8     1       0.1008553172E+00       5    8    1         0.5576479166E+01      0.8742622536E+01
          0                 2           2             5    8     1       0.4297259545E-01       5    8    1         0.2374054379E+01      0.2468119285E+01
          0                 3           2             4    7     1      -0.3411690809E-01       4    6    1        -0.1891720123E+01      0.4326850242E+01
          0                 4           2             4    7     1       0.3420262350E-01       4    6    1         0.1941800082E+01      0.4590793361E+01
          0                 5           2             5    8     1       0.8472486240E-02       5    8    1         0.4958151024E+00      0.4987940310E+00
          0                 6           1             5    8     1       0.1522835965E-02       5    8    1         0.8897797965E-01      0.8898026607E-01
          0                 7           1             5    8     1       0.2737018911E-03       5    8    1         0.1598878982E-01      0.1598962687E-01
          0                 8           1             5    8     1       0.4919077790E-04       5    8    1         0.2873407670E-02      0.2873627714E-02

    ------------------------------------------------
       NWT REQUIRED            8 OUTER ITERATIONS 
       AND A TOTAL OF         13 INNER ITERATIONS.
    ------------------------------------------------

 NO OUTPUT CONTROL FOR STRESS PERIOD   34   TIME STEP   18
 
 SOLVING FOR HEAD 
                                                   Max.-Head-Change                         Max.-Flux-Residual
  Residual-Control   Outer-Iter.   Inner-Iter.     Column Row Layer    Maximum-Head-Change  Column Row Layer    Maximum-Flux-Residual          L2-NORM 
          0                 1           2             5    8     1       0.9032767490E-01       5    8    1         0.4972445021E+01      0.8113719397E+01
          0                 2           2             5    8     1       0.1213990934E-01       5    8    1         0.6672877062E+00      0.9806288748E+00
          0                 3           2             4    7     1      -0.3407630890E-01       4    6    1        -0.1890899460E+01      0.4522334982E+01
          0                 4           2             4    7     1       0.3398024629E-01       4    6    1         0.1941870904E+01      0.4322613564E+01
          0                 5           2             4    8     1       0.9137343610E-02       4    8    1         0.5217183571E+00      0.6001914762E+00
          0                 6           2             4    8     1       0.4271412838E-02       4    8    1         0.2449567598E+00      0.2509032483E+00
          0                 7           2             4    8     1       0.1991970981E-02       4    8    1         0.1144525026E+00      0.1149412072E+00
          0                 8           2             4    8     1       0.9280935019E-03       4    8    1         0.5336453870E-01      0.5341377356E-01
          0                 9           2             4    8     1       0.3191904950E-03       4    8    1         0.1835567436E-01      0.1836532205E-01
          0                10           1             4    8     1       0.5850192611E-04       4    8    1         0.3363164368E-02      0.3367454625E-02

    ------------------------------------------------
       NWT REQUIRED           10 OUTER ITERATIONS 
       AND A TOTAL OF         19 INNER ITERATIONS.
    ------------------------------------------------

 NO OUTPUT CONTROL FOR STRESS PERIOD   34   TIME STEP   19
 
 SOLVING FOR HEAD 
                                                   Max.-Head-Change                         Max.-Flux-Residual
  Residual-Control   Outer-Iter.   Inner-Iter.     Column Row Layer    Maximum-Head-Change  Column Row Layer    Maximum-Flux-Residual          L2-NORM 
          0                 1           2             4    8     1       0.1289468295E+00       4    8    1         0.6978333011E+01      0.1037380788E+02
          0                 2           2             4    8     1       0.1794130916E-01       4    8    1         0.9646047067E+00      0.1315023364E+01
          0                 3           2             5    7     1      -0.3552190762E-01       4    6    1        -0.1890110748E+01      0.4530437830E+01
          0                 4           2             5    7     1       0.3706305992E-01       5    7    1         0.2023071626E+01      0.4510204990E+01
          0                 5           2             4    8     1       0.5277667258E-02       4    8    1         0.2995863102E+00      0.4331270668E+00
          0                 6           2             4    8     1       0.9837539476E-03       4    8    1         0.5580271454E-01      0.7915603043E-01
          0                 7           2             4    8     1       0.1832935807E-03       4    8    1         0.1039925572E-01      0.1454338351E-01
          0                 8           1             4    8     1       0.3413789725E-04       4    8    1         0.1937316371E-02      0.2674371663E-02

    ------------------------------------------------
       NWT REQUIRED            8 OUTER ITERATIONS 
       AND A TOTAL OF         15 INNER ITERATIONS.
    ------------------------------------------------

 NO OUTPUT CONTROL FOR STRESS PERIOD   34   TIME STEP   20
 
 SOLVING FOR HEAD 
                                                   Max.-Head-Change                         Max.-Flux-Residual
  Residual-Control   Outer-Iter.   Inner-Iter.     Column Row Layer    Maximum-Head-Change  Column Row Layer    Maximum-Flux-Residual          L2-NORM 
          0                 1           2             5    7     1       0.1289839693E+00       5    7    1         0.7123210179E+01      0.1217960193E+02
          0                 2           2             5    7     1       0.1748414634E-01       5    7    1         0.9506113448E+00      0.1582726967E+01
          0                 3           2             4    7     1      -0.3400585290E-01       4    6    1        -0.1889342329E+01      0.4472059093E+01
          0                 4           2             4    7     1       0.3400626482E-01       4    6    1         0.1942005668E+01      0.4329191474E+01
          0                 5           2             4    8     1       0.5276227355E-02       5    7    1         0.2999381892E+00      0.5174710283E+00
          0                 6           2             4    8     1       0.9843690744E-03       4    8    1         0.5578891905E-01      0.9554772039E-01
          0                 7           2             4    8     1       0.1836427581E-03       4    8    1         0.1040623098E-01      0.1772024378E-01
          0                 8           1             4    8     1       0.3425848266E-04       4    8    1         0.1941210555E-02      0.3287061335E-02

    ------------------------------------------------
       NWT REQUIRED            8 OUTER ITERATIONS 
       AND A TOTAL OF         15 INNER ITERATIONS.
    ------------------------------------------------

 NO OUTPUT CONTROL FOR STRESS PERIOD   34   TIME STEP   21
 
 SOLVING FOR HEAD 
                                                   Max.-Head-Change                         Max.-Flux-Residual
  Residual-Control   Outer-Iter.   Inner-Iter.     Column Row Layer    Maximum-Head-Change  Column Row Layer    Maximum-Flux-Residual          L2-NORM 
          0                 1           2             5    7     1       0.1214226741E+00       5    7    1         0.6606926081E+01      0.1200991235E+02
          0                 2           2             5    7     1       0.3635471575E-01       5    7    1         0.1988821261E+01      0.2433813863E+01
          0                 3           2             4    6     1      -0.3367217192E-01       4    6    1        -0.1888240764E+01      0.4187223894E+01
          0                 4           2             4    6     1       0.3362830805E-01       4    6    1         0.1941293049E+01      0.4106615129E+01
          0                 5           2             5    7     1       0.1159925963E-01       5    7    1         0.6694042218E+00      0.8462571670E+00
          0                 6           2             5    7     1       0.5343879910E-02       5    7    1         0.3106596253E+00      0.3260085182E+00
          0                 7           2             5    7     1       0.2452523759E-02       5    7    1         0.1430160043E+00      0.1443589730E+00
          0                 8           2             5    7     1       0.1123822051E-02       5    7    1         0.6561599411E-01      0.6575292581E-01
          0                 9           2             5    7     1       0.5146457082E-03       5    7    1         0.3006326561E-01      0.3008234321E-01
          0                10           2             5    7     1       0.2356166067E-03       5    7    1         0.1376633164E-01      0.1377041142E-01
                                                   Max.-Head-Change                         Max.-Flux-Residual
  Residual-Control   Outer-Iter.   Inner-Iter.     Column Row Layer    Maximum-Head-Change  Column Row Layer    Maximum-Flux-Residual          L2-NORM 
          0                11           2             5    7     1       0.1078585952E-03       5    7    1         0.6302295211E-02      0.6303561261E-02
          0                12           1             5    7     1       0.4937203318E-04       5    7    1         0.2884930119E-02      0.2885418156E-02

    ------------------------------------------------
       NWT REQUIRED           12 OUTER ITERATIONS 
       AND A TOTAL OF         23 INNER ITERATIONS.
    ------------------------------------------------

 NO OUTPUT CONTROL FOR STRESS PERIOD   34   TIME STEP   22
 
 SOLVING FOR HEAD 
                                                   Max.-Head-Change                         Max.-Flux-Residual
  Residual-Control   Outer-Iter.   Inner-Iter.     Column Row Layer    Maximum-Head-Change  Column Row Layer    Maximum-Flux-Residual          L2-NORM 
          0                 1           2             4    8     1       0.1152941777E+00       4    8    1         0.6104679883E+01      0.1233762750E+02
          0                 2           2             5    7     1       0.4915526960E-01       5    7    1         0.2690547914E+01      0.3395089463E+01
          0                 3           2             4    6     1      -0.3358614705E-01       4    6    1        -0.1886491740E+01      0.3701595139E+01
          0                 4           2             4    6     1       0.3341773049E-01       4    6    1         0.1940617192E+01      0.3621658467E+01
          0                 5           2             5    7     1       0.1274284619E-01       5    7    1         0.7239630453E+00      0.1251523803E+01
          0                 6           2             5    7     1       0.5995259524E-02       5    7    1         0.3417428203E+00      0.5779379596E+00
          0                 7           2             5    7     1       0.2816514923E-02       5    7    1         0.1607337224E+00      0.2718450097E+00
          0                 8           2             5    7     1       0.1322573316E-02       5    7    1         0.7550195305E-01      0.1281912240E+00
          0                 9           2             5    7     1       0.6210121673E-03       5    7    1         0.3545228393E-01      0.6046907154E-01
          0                10           2             5    7     1       0.2916196463E-03       5    7    1         0.1664619075E-01      0.2852562607E-01
                                                   Max.-Head-Change                         Max.-Flux-Residual
  Residual-Control   Outer-Iter.   Inner-Iter.     Column Row Layer    Maximum-Head-Change  Column Row Layer    Maximum-Flux-Residual          L2-NORM 
          0                11           2             5    7     1       0.1369596255E-03       5    7    1         0.7816751768E-02      0.1345732836E-01
          0                12           1             5    7     1       0.6433319088E-04       5    7    1         0.3671119084E-02      0.6349023687E-02

    ------------------------------------------------
       NWT REQUIRED           12 OUTER ITERATIONS 
       AND A TOTAL OF         23 INNER ITERATIONS.
    ------------------------------------------------

 NO OUTPUT CONTROL FOR STRESS PERIOD   34   TIME STEP   23
 
 SOLVING FOR HEAD 
                                                   Max.-Head-Change                         Max.-Flux-Residual
  Residual-Control   Outer-Iter.   Inner-Iter.     Column Row Layer    Maximum-Head-Change  Column Row Layer    Maximum-Flux-Residual          L2-NORM 
          0                 1           2             5    6     1       0.1228319847E+00       5    6    1         0.6725817584E+01      0.1364210771E+02
          0                 2           2             5    6     1       0.5332565392E-01       5    6    1         0.2907027322E+01      0.5164924675E+01
          0                 3           2             4    6     1      -0.3327471136E-01       4    6    1        -0.1883402946E+01      0.3023276595E+01
          0                 4           2             4    6     1       0.3354717079E-01       4    6    1         0.1941012365E+01      0.3934090260E+01
          0                 5           2             4    8     1       0.1306903617E-01       4    8    1         0.7370667797E+00      0.1349557934E+01
          0                 6           2             4    8     1       0.6197298845E-02       4    8    1         0.3507128126E+00      0.5949528610E+00
          0                 7           2             4    8     1       0.2933572375E-02       4    8    1         0.1662546398E+00      0.2452648171E+00
          0                 8           2             4    8     1       0.1387436376E-02       4    8    1         0.7868735016E-01      0.1077955316E+00
          0                 9           2             4    8     1       0.6558713794E-03       4    8    1         0.3721215741E-01      0.5012960776E-01
          0                10           2             4    8     1       0.3099492713E-03       4    8    1         0.1759001493E-01      0.2351923016E-01
                                                   Max.-Head-Change                         Max.-Flux-Residual
  Residual-Control   Outer-Iter.   Inner-Iter.     Column Row Layer    Maximum-Head-Change  Column Row Layer    Maximum-Flux-Residual          L2-NORM 
          0                11           2             4    8     1       0.1464416335E-03       4    8    1         0.8312267209E-02      0.1104804423E-01
          0                12           1             4    8     1       0.6917633204E-04       4    8    1         0.3927149000E-02      0.5190689100E-02

    ------------------------------------------------
       NWT REQUIRED           12 OUTER ITERATIONS 
       AND A TOTAL OF         23 INNER ITERATIONS.
    ------------------------------------------------

 NO OUTPUT CONTROL FOR STRESS PERIOD   34   TIME STEP   24
 
 SOLVING FOR HEAD 
                                                   Max.-Head-Change                         Max.-Flux-Residual
  Residual-Control   Outer-Iter.   Inner-Iter.     Column Row Layer    Maximum-Head-Change  Column Row Layer    Maximum-Flux-Residual          L2-NORM 
          0                 1           2             5    6     1       0.1123310762E+00       5    6    1         0.6136816051E+01      0.1303651060E+02
          0                 2           2             4    8     1       0.4716251644E-01       4    8    1         0.2527711531E+01      0.3489958118E+01
          0                 3           2             4    6     1      -0.3352173659E-01       4    6    1        -0.1881422159E+01      0.3807298833E+01
          0                 4           2             4    6     1       0.3353310785E-01       4    6    1         0.1940547322E+01      0.3926554477E+01
          0                 5           2             4    8     1       0.1285587810E-01       4    8    1         0.7251924826E+00      0.1108669231E+01
          0                 6           2             4    8     1       0.6092967812E-02       4    8    1         0.3449866074E+00      0.4740192232E+00
          0                 7           2             4    8     1       0.2882290737E-02       4    8    1         0.1634484726E+00      0.2192848749E+00
          0                 8           2             4    8     1       0.1362330597E-02       4    8    1         0.7730772254E-01      0.1028058414E+00
          0                 9           2             4    8     1       0.6436392966E-03       4    8    1         0.3653698962E-01      0.4829186239E-01
          0                10           2             4    8     1       0.3040114425E-03       4    8    1         0.1726118734E-01      0.2269071277E-01
                                                   Max.-Head-Change                         Max.-Flux-Residual
  Residual-Control   Outer-Iter.   Inner-Iter.     Column Row Layer    Maximum-Head-Change  Column Row Layer    Maximum-Flux-Residual          L2-NORM 
          0                11           2             4    8     1       0.1435669297E-03       4    8    1         0.8152691699E-02      0.1066224109E-01
          0                12           1             4    8     1       0.6778741849E-04       4    8    1         0.3849910219E-02      0.5010354236E-02

    ------------------------------------------------
       NWT REQUIRED           12 OUTER ITERATIONS 
       AND A TOTAL OF         23 INNER ITERATIONS.
    ------------------------------------------------

 NO OUTPUT CONTROL FOR STRESS PERIOD   34   TIME STEP   25
 
 SOLVING FOR HEAD 
                                                   Max.-Head-Change                         Max.-Flux-Residual
  Residual-Control   Outer-Iter.   Inner-Iter.     Column Row Layer    Maximum-Head-Change  Column Row Layer    Maximum-Flux-Residual          L2-NORM 
          0                 1           2             4    7     1       0.1083999104E+00       4    7    1         0.5777870802E+01      0.1259874628E+02
          0                 2           2             4    7     1       0.4277066782E-01       4    7    1         0.2302455883E+01      0.3349214323E+01
          0                 3           2             4    6     1      -0.3325517827E-01       4    6    1        -0.1878507257E+01      0.3824623683E+01
          0                 4           2             4    6     1       0.3350783489E-01       4    6    1         0.1940873914E+01      0.3898924790E+01
          0                 5           2             4    7     1       0.1242989353E-01       4    7    1         0.7077873135E+00      0.1089546907E+01
          0                 6           2             4    7     1       0.5814902905E-02       4    7    1         0.3332911492E+00      0.4605513743E+00
          0                 7           2             4    7     1       0.2711142215E-02       4    7    1         0.1558162823E+00      0.2101428085E+00
          0                 8           1             4    7     1       0.1262359448E-02       4    7    1         0.7262898352E-01      0.9708927453E-01
          0                 9           1             4    7     1       0.5874637576E-03       4    7    1         0.3381358755E-01      0.4492990539E-01
          0                10           1             4    7     1       0.2733269663E-03       4    7    1         0.1573491017E-01      0.2079516318E-01
                                                   Max.-Head-Change                         Max.-Flux-Residual
  Residual-Control   Outer-Iter.   Inner-Iter.     Column Row Layer    Maximum-Head-Change  Column Row Layer    Maximum-Flux-Residual          L2-NORM 
          0                11           1             4    7     1       0.1271571506E-03       4    7    1         0.7320659578E-02      0.9624831975E-02
          0                12           1             4    7     1       0.5915304510E-04       4    7    1         0.3405624996E-02      0.4454875149E-02

    ------------------------------------------------
       NWT REQUIRED           12 OUTER ITERATIONS 
       AND A TOTAL OF         19 INNER ITERATIONS.
    ------------------------------------------------

 NO OUTPUT CONTROL FOR STRESS PERIOD   34   TIME STEP   26
 
 SOLVING FOR HEAD 
                                                   Max.-Head-Change                         Max.-Flux-Residual
  Residual-Control   Outer-Iter.   Inner-Iter.     Column Row Layer    Maximum-Head-Change  Column Row Layer    Maximum-Flux-Residual          L2-NORM 
          0                 1           2             4    7     1       0.1023219581E+00       4    7    1         0.5442128057E+01      0.1219023159E+02
          0                 2           2             4    7     1       0.4514144186E-01       4    7    1         0.2437688642E+01      0.3134261387E+01
          0                 3           2             4    6     1      -0.3318315589E-01       4    6    1        -0.1875218971E+01      0.4044944579E+01
          0                 4           2             4    6     1       0.3350143429E-01       4    6    1         0.1940753022E+01      0.3988787679E+01
          0                 5           2             4    7     1       0.1262422192E-01       4    7    1         0.7191487736E+00      0.9334774137E+00
          0                 6           2             4    7     1       0.5902657114E-02       4    7    1         0.3384889729E+00      0.3567915706E+00
          0                 7           2             4    7     1       0.2750359748E-02       4    7    1         0.1581607454E+00      0.1597013265E+00
          0                 8           1             4    7     1       0.1279764075E-02       4    7    1         0.7367585541E-01      0.7382532264E-01
          0                 9           1             4    7     1       0.5951504431E-03       4    7    1         0.3427792123E-01      0.3429782060E-01
          0                10           1             4    7     1       0.2767089217E-03       4    7    1         0.1593989685E-01      0.1594407693E-01
                                                   Max.-Head-Change                         Max.-Flux-Residual
  Residual-Control   Outer-Iter.   Inner-Iter.     Column Row Layer    Maximum-Head-Change  Column Row Layer    Maximum-Flux-Residual          L2-NORM 
          0                11           1             4    7     1       0.1286401189E-03       4    7    1         0.7410818677E-02      0.7412126611E-02
          0                12           1             4    7     1       0.5980115129E-04       4    7    1         0.3445147199E-02      0.3445661122E-02

    ------------------------------------------------
       NWT REQUIRED           12 OUTER ITERATIONS 
       AND A TOTAL OF         19 INNER ITERATIONS.
    ------------------------------------------------

 NO OUTPUT CONTROL FOR STRESS PERIOD   34   TIME STEP   27
 
 SOLVING FOR HEAD 
                                                   Max.-Head-Change                         Max.-Flux-Residual
  Residual-Control   Outer-Iter.   Inner-Iter.     Column Row Layer    Maximum-Head-Change  Column Row Layer    Maximum-Flux-Residual          L2-NORM 
          0                 1           2             5    7     1       0.9903538451E-01       5    7    1         0.5239787586E+01      0.1175090538E+02
          0                 2           2             4    7     1       0.4272366392E-01       4    7    1         0.2307820777E+01      0.2725934433E+01
          0                 3           2             4    6     1      -0.3354574836E-01       4    6    1        -0.1843711164E+01      0.4067179539E+01
          0                 4           2             4    8     1       0.2816136655E-01       4    8    1         0.1575143018E+01      0.3774941639E+01
          0                 5           2             4    7     1       0.1245543606E-01       4    7    1         0.7048935534E+00      0.9652882270E+00
          0                 6           2             4    7     1       0.5841826390E-02       4    7    1         0.3341470030E+00      0.3786097835E+00
          0                 7           2             4    7     1       0.1273790613E-02       4    7    1         0.7286914911E-01      0.9935949927E-01
          0                 8           2             5    6     1       0.4998326029E-03       5    6    1         0.2917923343E-01      0.3249577558E-01
          0                 9           2             5    6     1       0.2287087389E-03       5    6    1         0.1337186567E-01      0.1364393087E-01
          0                10           2             5    6     1       0.1045648271E-03       5    6    1         0.6117608934E-02      0.6140868011E-02
          0                11           1             5    6     1       0.4778931084E-04       5    6    1         0.2796722689E-02      0.2799190460E-02

    ------------------------------------------------
       NWT REQUIRED           11 OUTER ITERATIONS 
       AND A TOTAL OF         21 INNER ITERATIONS.
    ------------------------------------------------

 NO OUTPUT CONTROL FOR STRESS PERIOD   34   TIME STEP   28
 
 SOLVING FOR HEAD 
                                                   Max.-Head-Change                         Max.-Flux-Residual
  Residual-Control   Outer-Iter.   Inner-Iter.     Column Row Layer    Maximum-Head-Change  Column Row Layer    Maximum-Flux-Residual          L2-NORM 
          0                 1           2             4    6     1       0.1345737705E+00       4    6    1         0.7188484004E+01      0.1354180228E+02
          0                 2           2             4    6     1       0.4341369048E-01       4    6    1         0.2326870395E+01      0.3971406671E+01
          0                 3           2             4    8     1      -0.3236821955E-01       5    8    1        -0.1785714504E+01      0.3464178303E+01
          0                 4           2             4    7     1       0.2842485315E-01       5    8    1         0.1575708314E+01      0.3695036614E+01
          0                 5           2             4    6     1       0.1249559899E-01       4    6    1         0.7057846316E+00      0.1300591992E+01
          0                 6           2             4    6     1       0.5914656136E-02       4    6    1         0.3352811365E+00      0.5740319697E+00
          0                 7           2             4    6     1       0.2794808241E-02       4    6    1         0.1586491515E+00      0.2673207026E+00
          0                 8           2             4    6     1       0.1319714567E-02       4    6    1         0.7495468665E-01      0.1255753127E+00
          0                 9           2             4    6     1       0.6230045744E-03       4    6    1         0.3539137801E-01      0.5906189278E-01
          0                10           2             4    6     1       0.2940727024E-03       4    6    1         0.1670674905E-01      0.2778300871E-01
                                                   Max.-Head-Change                         Max.-Flux-Residual
  Residual-Control   Outer-Iter.   Inner-Iter.     Column Row Layer    Maximum-Head-Change  Column Row Layer    Maximum-Flux-Residual          L2-NORM 
          0                11           2             4    6     1       0.1388023363E-03       4    6    1         0.7885759956E-02      0.1306975525E-01
          0                12           1             4    6     1       0.6551292858E-04       4    6    1         0.3721993368E-02      0.6148521350E-02

    ------------------------------------------------
       NWT REQUIRED           12 OUTER ITERATIONS 
       AND A TOTAL OF         23 INNER ITERATIONS.
    ------------------------------------------------

 NO OUTPUT CONTROL FOR STRESS PERIOD   34   TIME STEP   29
 
 SOLVING FOR HEAD 
                                                   Max.-Head-Change                         Max.-Flux-Residual
  Residual-Control   Outer-Iter.   Inner-Iter.     Column Row Layer    Maximum-Head-Change  Column Row Layer    Maximum-Flux-Residual          L2-NORM 
          0                 1           2             4    6     1       0.1279747318E+00       4    6    1         0.6827219016E+01      0.1323258693E+02
          0                 2           2             4    6     1       0.5656389184E-01       4    6    1         0.3046750015E+01      0.4685971252E+01
          0                 3           2             5    8     1      -0.3195903981E-01       5    8    1        -0.1782696965E+01      0.3121468191E+01
          0                 4           2             4    6     1       0.2870767745E-01       4    6    1         0.1610616985E+01      0.3663141963E+01
          0                 5           2             4    6     1       0.1362332212E-01       4    6    1         0.7707420142E+00      0.1454664380E+01
          0                 6           2             4    6     1       0.6439863828E-02       4    6    1         0.3654884793E+00      0.6645390298E+00
          0                 7           2             4    6     1       0.3039693416E-02       4    6    1         0.1727190021E+00      0.3112076891E+00
          0                 8           2             4    6     1       0.1433983492E-02       4    6    1         0.8151541347E-01      0.1462170253E+00
          0                 9           2             4    6     1       0.6763532724E-03       4    6    1         0.3845288400E-01      0.6871904669E-01
          0                10           2             4    6     1       0.3189895386E-03       4    6    1         0.1813610450E-01      0.3229667995E-01
                                                   Max.-Head-Change                         Max.-Flux-Residual
  Residual-Control   Outer-Iter.   Inner-Iter.     Column Row Layer    Maximum-Head-Change  Column Row Layer    Maximum-Flux-Residual          L2-NORM 
          0                11           2             4    6     1       0.1504437657E-03       4    6    1         0.8553357046E-02      0.1517902741E-01
          0                12           1             4    6     1       0.7095365674E-04       4    6    1         0.4033904447E-02      0.7134178690E-02

    ------------------------------------------------
       NWT REQUIRED           12 OUTER ITERATIONS 
       AND A TOTAL OF         23 INNER ITERATIONS.
    ------------------------------------------------

 NO OUTPUT CONTROL FOR STRESS PERIOD   34   TIME STEP   30



 STREAM LISTING     PERIOD     34   STEP       30

 LAYER ROW COL. STREAM  RCH.  FLOW INTO     FLOW TO   FLOW OUT OF   OVRLND.     DIRECT     STREAM       STREAM     STREAM     STREAM   STREAMBED  STREAMBED
                SEG.NO.  NO.  STRM. RCH.    AQUIFER    STRM. RCH.    RUNOFF     PRECIP       ET          HEAD       DEPTH      WIDTH   CONDCTNC.   GRADIENT

   1    1    1     1     1    3.5249E+01  2.8720E-01   3.4962E+01  0.000E+00  0.000E+00  0.000E+00  1.09434E+03  1.294E+00  1.486E+01  6.688E-02  1.431E+00
   1    2    2     1     2    3.4962E+01  4.4466E-01   3.4517E+01  0.000E+00  0.000E+00  0.000E+00  1.08935E+03  1.291E+00  1.480E+01  1.036E-01  1.430E+00
   1    3    3     1     3    3.4517E+01  3.7911E-01   3.4138E+01  0.000E+00  0.000E+00  0.000E+00  1.08371E+03  1.288E+00  1.474E+01  8.841E-02  1.429E+00
   1    3    4     1     4    3.4138E+01  3.4901E-01   3.3789E+01  0.000E+00  0.000E+00  0.000E+00  1.07869E+03  1.285E+00  1.468E+01  8.145E-02  1.428E+00
   1    4    5     2     1    3.1789E+01  3.4244E-01   3.1446E+01  0.000E+00  0.000E+00  0.000E+00  1.07332E+03  1.390E+00  1.200E+01  7.800E-02  1.463E+00
   1    5    6     2     2    3.1446E+01  2.6294E-01   3.1184E+01  0.000E+00  0.000E+00  0.000E+00  1.06789E+03  1.382E+00  1.200E+01  6.000E-02  1.461E+00
   1    6    6     2     3    3.1184E+01  2.6252E-01   3.0921E+01  0.000E+00  0.000E+00  0.000E+00  1.06317E+03  1.375E+00  1.200E+01  6.000E-02  1.458E+00
   1    7    6     2     4    3.0921E+01  2.6210E-01   3.0659E+01  0.000E+00  0.000E+00  0.000E+00  1.05844E+03  1.368E+00  1.200E+01  6.000E-02  1.456E+00
   1    8    6     2     5    3.0659E+01  2.6168E-01   3.0397E+01  0.000E+00  0.000E+00  0.000E+00  1.05372E+03  1.361E+00  1.200E+01  6.000E-02  1.454E+00
   1    3    5     3     1    2.0000E+00  2.8252E-01   1.7175E+00  0.000E+00  0.000E+00  0.000E+00  1.07555E+03  1.909E+00  9.636E+00  7.227E-02  1.955E+00
   1    3    6     3     2    1.7175E+00  2.4905E-01   1.4684E+00  0.000E+00  0.000E+00  0.000E+00  1.07264E+03  1.727E+00  8.909E+00  6.682E-02  1.864E+00
   1    3    7     3     3    1.4684E+00  1.9718E-01   1.2712E+00  0.000E+00  0.000E+00  0.000E+00  1.06987E+03  1.555E+00  8.218E+00  5.547E-02  1.777E+00
   1    4    8     3     4    1.2712E+00  2.2567E-01   1.0456E+00  0.000E+00  0.000E+00  0.000E+00  1.06682E+03  1.364E+00  7.455E+00  6.709E-02  1.682E+00
   1    5    8     3     5    1.0456E+00  1.5790E-01   8.8768E-01  0.000E+00  0.000E+00  0.000E+00  1.06362E+03  1.164E+00  6.655E+00  4.991E-02  1.582E+00
   1    6    8     3     6    8.8768E-01  5.5980E-02   8.3170E-01  0.000E+00  0.000E+00  0.000E+00  1.06158E+03  1.036E+00  6.145E+00  1.844E-02  1.518E+00
   1    5   10     4     1    1.0000E+01  9.0919E-02   9.9091E+00  0.000E+00  0.000E+00  0.000E+00  1.07836E+03  6.368E-01  1.000E+01  2.500E-02  1.212E+00
   1    5    9     4     2    9.9091E+00  1.8158E-01   9.7275E+00  0.000E+00  0.000E+00  0.000E+00  1.07154E+03  6.315E-01  1.000E+01  5.000E-02  1.211E+00
   1    6    8     4     3    9.7275E+00  1.2689E-01   9.6006E+00  0.000E+00  0.000E+00  0.000E+00  1.06381E+03  6.256E-01  1.000E+01  3.500E-02  1.209E+00
   1    6    8     5     1    1.0432E+01  2.2686E-01   1.0205E+01  0.000E+00  0.000E+00  0.000E+00  1.05868E+03  6.790E-01  1.542E+01  6.166E-02  1.226E+00
   1    7    7     5     2    1.0205E+01  2.7894E-01   9.9265E+00  0.000E+00  0.000E+00  0.000E+00  1.05417E+03  6.732E-01  1.519E+01  7.594E-02  1.224E+00
   1    8    7     5     3    9.9265E+00  1.9221E-01   9.7343E+00  0.000E+00  0.000E+00  0.000E+00  1.04992E+03  6.676E-01  1.497E+01  5.241E-02  1.223E+00
   1    8    6     5     4    9.7343E+00  1.3577E-01   9.5985E+00  0.000E+00  0.000E+00  0.000E+00  1.04691E+03  6.637E-01  1.482E+01  3.706E-02  1.221E+00
   1    9    6     6     1    2.8803E+01  2.5954E-01   2.8543E+01  0.000E+00  0.000E+00  0.000E+00  1.04405E+03  1.326E+00  1.200E+01  6.000E-02  1.442E+00
   1   10    7     6     2    2.8543E+01  2.5911E-01   2.8284E+01  0.000E+00  0.000E+00  0.000E+00  1.03950E+03  1.319E+00  1.200E+01  6.000E-02  1.440E+00
   1   11    7     6     3    2.8284E+01  2.5868E-01   2.8025E+01  0.000E+00  0.000E+00  0.000E+00  1.03495E+03  1.311E+00  1.200E+01  6.000E-02  1.437E+00
   1   12    7     6     4    2.8025E+01  2.5824E-01   2.7767E+01  0.000E+00  0.000E+00  0.000E+00  1.03040E+03  1.304E+00  1.200E+01  6.000E-02  1.435E+00
   1   13    7     6     5    2.7767E+01  4.0984E-03   2.7763E+01  0.000E+00  0.000E+00  0.000E+00  1.02721E+03  1.300E+00  1.200E+01  2.400E-02  5.692E-02
   1   14    9     7     1    1.5000E+02  1.3477E+00   1.4865E+02  0.000E+00  0.000E+00  0.000E+00  1.03987E+03  2.288E+00  5.529E+01  5.593E-01  8.032E-01
   1   13    8     7     2    1.4865E+02  1.8540E+00   1.4680E+02  0.000E+00  0.000E+00  0.000E+00  1.03478E+03  2.279E+00  5.526E+01  6.148E-01  1.005E+00
   1   13    7     7     3    1.4680E+02  1.4804E+00   1.4532E+02  0.000E+00  0.000E+00  0.000E+00  1.02969E+03  2.270E+00  5.522E+01  5.584E-01  8.836E-01
   1   13    6     8     1    1.7308E+02  9.3311E-01   1.7215E+02  0.000E+00  0.000E+00  0.000E+00  1.02484E+03  2.969E+00  4.305E+01  4.387E-01  7.090E-01
   1   13    5     8     2    1.7215E+02  1.7289E-01   1.7198E+02  0.000E+00  0.000E+00  0.000E+00  1.01859E+03  2.966E+00  4.300E+01  4.382E-01  1.315E-01
   1   13    4     8     3    1.7198E+02 -2.4685E+00   1.7444E+02  0.000E+00  0.000E+00  0.000E+00  1.01235E+03  2.973E+00  4.311E+01  4.393E+00 -1.873E-01
   1   13    3     8     4    1.7444E+02 -3.6376E+00   1.7808E+02  0.000E+00  0.000E+00  0.000E+00  1.00612E+03  2.993E+00  4.339E+01  4.422E+00 -2.742E-01
   1   13    2     8     5    1.7808E+02 -2.5323E+00   1.8061E+02  0.000E+00  0.000E+00  0.000E+00  9.99887E+02  3.012E+00  4.367E+01  4.451E+00 -1.897E-01
   1   13    1     8     6    1.8061E+02 -1.9293E+00   1.8254E+02  0.000E+00  0.000E+00  0.000E+00  9.94901E+02  3.026E+00  4.388E+01  2.683E+00 -2.397E-01
   1    8    6     9     1    1.1193E+01  0.0000E+00   1.1193E+01  0.000E+00  0.000E+00  0.000E+00  1.08117E+03  2.425E+00  4.000E+00  0.000E+00  1.808E+00
   1    8    5     9     2    1.1193E+01  0.0000E+00   1.1193E+01  0.000E+00  0.000E+00  0.000E+00  1.08067E+03  2.425E+00  4.000E+00  0.000E+00  1.808E+00





UNSATURATED ZONE PACKAGE VOLUMETRIC BUDGET FOR  TIME STEP    30 STRESS PERIOD   34
  ------------------------------------------------------------------------------



     CUMULATIVE VOLUMES      L**3       RATES FOR THIS TIME STEP      L**3/T
     ------------------                 ------------------------

           IN:                                      IN:
           ---                                      ---
        INFILTRATION =  4260546157.4081          INFILTRATION =          12.0407

          OUT:                                     OUT:
          ----                                     ----
              UZF ET =  1281413257.0974                UZF ET =          12.0675
        UZF RECHARGE =  2668961458.9026          UZF RECHARGE =          72.2939

            IN - OUT =   310171441.4081              IN - OUT =         -72.3206

          STORAGE:                                 STORAGE:
          --------                                 --------
      STORAGE CHANGE =   310163940.4282        STORAGE CHANGE =         -72.3206

 PERCENT DISCREPANCY IS DIFFERENCE BETWEEN IN-OUT MINUS CHANGE IN STORAGE
 DIVIDED BY THE AVERAGE OF IN AND OUT TIMES 100

 PERCENT DISCREPANCY =           0.00     PERCENT DISCREPANCY =           0.00






1
  VOLUMETRIC BUDGET FOR AGRICULTURAL FIELDS AT  END OF TIME STEP   30, STRESS PERIOD  34
  ------------------------------------------------------------------------------

     CUMULATIVE VOLUMES      L**3       RATES FOR THIS TIME STEP      L**3/T
     ------------------                 ------------------------

           IN:                                      IN:
           ---                                      ---
           AG WELLS      =  2651750144.0000             AG WELLS      =           0.0000
      DIVERSION SEGMENTS =  1535143168.0000        DIVERSION SEGMENTS =          11.1930
           GW IRRIGATION =           0.0000             GW IRRIGATION =           0.0000
           SW IRRIGATION =           0.0000             SW IRRIGATION =           0.0000
        SYSTEM LOSSES GW =           0.0000          SYSTEM LOSSES GW =           0.0000
        SYSTEM LOSSES SW =           0.0000          SYSTEM LOSSES SW =           0.0000

                TOTAL IN =  4186893312.0000                  TOTAL IN =          11.1930

          OUT:                                     OUT:
          ----                                     ----
           AG WELLS      =           0.0000             AG WELLS      =           0.0000
      DIVERSION SEGMENTS =           0.0000        DIVERSION SEGMENTS =           0.0000
           GW IRRIGATION =  2651750144.0000             GW IRRIGATION =           0.0000
           SW IRRIGATION =  1535171456.0000             SW IRRIGATION =          11.1932
        SYSTEM LOSSES GW =           0.0000          SYSTEM LOSSES GW =           0.0000
        SYSTEM LOSSES SW =           0.0000          SYSTEM LOSSES SW =           0.0000

               TOTAL OUT =  4186921472.0000                 TOTAL OUT =          11.1932

                IN - OUT =      -28160.0000                  IN - OUT =      -2.2411E-04

     PERCENT DISCREPANCY =          -0.00         PERCENT DISCREPANCY =          -0.00



1
  VOLUMETRIC BUDGET FOR ENTIRE MODEL AT END OF TIME STEP   30, STRESS PERIOD  34
  ------------------------------------------------------------------------------

     CUMULATIVE VOLUMES      L**3       RATES FOR THIS TIME STEP      L**3/T
     ------------------                 ------------------------

           IN:                                      IN:
           ---                                      ---
             STORAGE     =  2547879424.0000               STORAGE     =           0.1543
       CONSTANT HEAD     =           0.0000         CONSTANT HEAD     =           0.0000
     HEAD DEP BOUNDS     =    24858754.0000       HEAD DEP BOUNDS     =           0.2866
      STREAM LEAKAGE     =  1042465984.0000        STREAM LEAKAGE     =          12.0808
        UZF RECHARGE     =  2668960768.0000          UZF RECHARGE     =          72.2939
               GW ET     =           0.0000                 GW ET     =           0.0000
     SURFACE LEAKAGE     =           0.0000       SURFACE LEAKAGE     =           0.0000
           AG WELLS      =           0.0000             AG WELLS      =           0.0000

                TOTAL IN =  6284165120.0000                  TOTAL IN =          84.8156

          OUT:                                     OUT:
          ----                                     ----
             STORAGE     =  2672794624.0000               STORAGE     =          73.9516
       CONSTANT HEAD     =           0.0000         CONSTANT HEAD     =           0.0000
     HEAD DEP BOUNDS     =    25154662.0000       HEAD DEP BOUNDS     =           0.2896
      STREAM LEAKAGE     =   934352704.0000        STREAM LEAKAGE     =          10.5677
        UZF RECHARGE     =           0.0000          UZF RECHARGE     =           0.0000
               GW ET     =      151061.6094                 GW ET     =           0.0000
     SURFACE LEAKAGE     =           0.0000       SURFACE LEAKAGE     =           0.0000
           AG WELLS      =  2651750144.0000             AG WELLS      =           0.0000

               TOTAL OUT =  6284203008.0000                 TOTAL OUT =          84.8088

                IN - OUT =      -37888.0000                  IN - OUT =       6.7673E-03

     PERCENT DISCREPANCY =          -0.00         PERCENT DISCREPANCY =           0.01






         TIME SUMMARY AT END OF TIME STEP   30 IN STRESS PERIOD   34
                    SECONDS     MINUTES      HOURS       DAYS        YEARS
                    -----------------------------------------------------------
   TIME STEP LENGTH  87667.      1461.1      24.352      1.0147     2.77799E-03
 STRESS PERIOD TIME 2.63000E+06  43833.      730.56      30.440     8.33397E-02
         TOTAL TIME 8.68762E+07 1.44794E+06  24132.      1005.5      2.7529    
1
1
                            STRESS PERIOD NO.   35, LENGTH =   2630000.    
                            -----------------------------------------------

                              NUMBER OF TIME STEPS =    30

                               MULTIPLIER FOR DELT =     1.000

                            INITIAL TIME STEP SIZE =   87666.66    

 REUSING NON-PARAMETER GHB CELLS FROM LAST STRESS PERIOD

      2 GHB CELLS

 REUSING STREAM SEGMENT DATA FROM LAST STRESS PERIOD



            AREAL INFILTRATION RATE
 READING ON UNIT   19 WITH FORMAT: (FREE)              

            1           2           3           4           5           6           7           8           9          10
 ........................................................................................................................
   1   1.0000E-10  2.0000E-10   0.000       0.000       0.000       0.000       0.000       0.000       0.000       0.000    
   2   2.0000E-10  1.0000E-10  2.0000E-10   0.000       0.000      8.0000E-10  8.0000E-10  5.0000E-10   0.000       0.000    
   3    0.000      5.0000E-10  1.0000E-10  1.0000E-10  8.0000E-10  8.0000E-10  5.0000E-10  5.0000E-10   0.000       0.000    
   4   8.0000E-10  5.0000E-10  1.0000E-10  1.0000E-10  1.0000E-10  1.0000E-10  1.0000E-10  1.0000E-10  2.0000E-10   0.000    
   5   8.0000E-10  5.0000E-10  1.0000E-10  1.0000E-10  1.0000E-10  1.0000E-10  1.0000E-10  1.0000E-10  1.0000E-10  1.0000E-10
   6   8.0000E-10  5.0000E-10  5.0000E-10  2.0000E-10  2.0000E-10  1.0000E-10  1.0000E-10  1.0000E-10  1.0000E-10  5.0000E-10
   7   8.0000E-10  5.0000E-10  5.0000E-10  2.0000E-10  2.0000E-10  1.0000E-10  1.0000E-10  2.0000E-10  2.0000E-10   0.000    
   8    0.000      5.0000E-10  5.0000E-10  2.0000E-10  2.0000E-10  1.0000E-10  1.0000E-10  2.0000E-10  5.0000E-10   0.000    
   9    0.000      5.0000E-10  5.0000E-10  2.0000E-10  2.0000E-10  1.0000E-10  1.0000E-10  2.0000E-10  5.0000E-10   0.000    
  10    0.000      5.0000E-10  5.0000E-10  2.0000E-10  2.0000E-10  1.0000E-10  1.0000E-10  2.0000E-10  5.0000E-10  8.0000E-10
  11    0.000      1.0000E-10  1.0000E-10  1.0000E-10  1.0000E-10  1.0000E-10  1.0000E-10  2.0000E-10  5.0000E-10   0.000    
  12   1.0000E-10  1.0000E-10  1.0000E-10  1.0000E-10  1.0000E-10  1.0000E-10  1.0000E-10  1.0000E-10  2.0000E-10   0.000    
  13   1.0000E-10  1.0000E-10  2.0000E-10  2.0000E-10  2.0000E-10  2.0000E-10  2.0000E-10  1.0000E-10  1.0000E-10   0.000    
  14    0.000      2.0000E-10  5.0000E-10  5.0000E-10  5.0000E-10  5.0000E-10  5.0000E-10  2.0000E-10  1.0000E-10   0.000    
  15    0.000       0.000      8.0000E-10  8.0000E-10  8.0000E-10  8.0000E-10   0.000       0.000       0.000       0.000    

                  ET RATE =  5.000000E-09

 USING ET EXTINCTION DEPTH FROM PREVIOUS STRESS PERIOD. CURRENT PERIOD IS:      35

 USING EXTINCTION WATER CONTENT FROM PREVIOUS STRESS PERIOD. CURRENT PERIOD IS:      35

 USING AIR ENTRY PRESSURE FROM PREVIOUS STRESS PERIOD. CURRENT PERIOD IS:      35

 USING ROOT PRESSURE HEAD FROM PREVIOUS STRESS PERIOD. CURRENT PERIOD IS:      35

 USING ROOT ACTIVITY FROM PREVIOUS STRESS PERIOD. CURRENT PERIOD IS:      35

 PROCESSING AG STRESS PERIOD DATA

 READING AG STRESS PERIOD DATA

 READING IRRIGATION SEGMENT

 READING IRRIGATION WELL

 READING SUPPLEMENTAL WELL

 END PROCESSING AG STRESS PERIOD DATA OPTIONS
 
 SOLVING FOR HEAD 
                                                   Max.-Head-Change                         Max.-Flux-Residual
  Residual-Control   Outer-Iter.   Inner-Iter.     Column Row Layer    Maximum-Head-Change  Column Row Layer    Maximum-Flux-Residual          L2-NORM 
          0                 1           2             4    6     1       0.1205629327E+00       4    6    1         0.6416927972E+01      0.1292231701E+02
          0                 2           2             4    6     1       0.5336114388E-01       4    6    1         0.2871785450E+01      0.4751182906E+01
          0                 3           2             4    8     1       0.1786969104E-01       4    8    1         0.9671317165E+00      0.1679360099E+01
          0                 4           2             4    8     1       0.7820136900E-02       4    8    1         0.4240323437E+00      0.7083270434E+00
          0                 5           2             4    8     1       0.3419057880E-02       4    8    1         0.1854910828E+00      0.3079224112E+00
          0                 6           2             4    8     1       0.1494389931E-02       4    8    1         0.8108889072E-01      0.1342290964E+00
          0                 7           2             4    8     1       0.6530946697E-03       4    8    1         0.3544056422E-01      0.5852137448E-01
          0                 8           2             4    8     1       0.2854121954E-03       4    8    1         0.1548840552E-01      0.2551365760E-01
          0                 9           2             4    8     1       0.1247276639E-03       4    8    1         0.6768632221E-02      0.1112311833E-01
          0                10           1             4    8     1       0.5450668617E-04       4    8    1         0.2957946333E-02      0.4849317892E-02

    ------------------------------------------------
       NWT REQUIRED           10 OUTER ITERATIONS 
       AND A TOTAL OF         19 INNER ITERATIONS.
    ------------------------------------------------

 NO OUTPUT CONTROL FOR STRESS PERIOD   35   TIME STEP    1
 
 SOLVING FOR HEAD 
                                                   Max.-Head-Change                         Max.-Flux-Residual
  Residual-Control   Outer-Iter.   Inner-Iter.     Column Row Layer    Maximum-Head-Change  Column Row Layer    Maximum-Flux-Residual          L2-NORM 
          0                 1           2             4    6     1       0.1154902059E+00       4    6    1         0.6139409272E+01      0.1265729793E+02
          0                 2           2             4    8     1       0.3880485332E-01       4    8    1         0.2092508315E+01      0.3045386302E+01
          0                 3           2             4    8     1       0.1485168420E-01       4    8    1         0.8068850198E+00      0.8129964661E+00
          0                 4           2             4    8     1       0.8654082141E-02       4    8    1         0.4669228246E+00      0.5369206766E+00
          0                 5           2             4    8     1       0.3241224471E-02       4    8    1         0.1763087744E+00      0.1780971799E+00
          0                 6           2             4    8     1       0.1964506902E-02       4    8    1         0.1059401985E+00      0.1225722476E+00
          0                 7           2             4    8     1       0.8607758074E-03       4    8    1         0.4658642250E-01      0.4826491615E-01
          0                 8           2             4    8     1       0.3764715214E-03       4    8    1         0.2040956735E-01      0.2059351043E-01
          0                 9           2             4    8     1       0.1645140946E-03       4    8    1         0.8925876479E-02      0.8950503096E-02
          0                10           1             4    8     1       0.7186198425E-04       4    8    1         0.3900426120E-02      0.3904849054E-02

    ------------------------------------------------
       NWT REQUIRED           10 OUTER ITERATIONS 
       AND A TOTAL OF         19 INNER ITERATIONS.
    ------------------------------------------------

 NO OUTPUT CONTROL FOR STRESS PERIOD   35   TIME STEP    2
 
 SOLVING FOR HEAD 
                                                   Max.-Head-Change                         Max.-Flux-Residual
  Residual-Control   Outer-Iter.   Inner-Iter.     Column Row Layer    Maximum-Head-Change  Column Row Layer    Maximum-Flux-Residual          L2-NORM 
          0                 1           2             4    6     1       0.1123088016E+00       4    6    1         0.5965735941E+01      0.1246916631E+02
          0                 2           2             4    8     1       0.3734873350E-01       4    8    1         0.1997760798E+01      0.3088480414E+01
          0                 3           2             4    7     1       0.1352745257E-01       4    7    1         0.7340930843E+00      0.7812495095E+00
          0                 4           2             4    7     1       0.8003729688E-02       4    7    1         0.4311216562E+00      0.5057390616E+00
          0                 5           2             4    7     1       0.2374113558E-02       4    7    1         0.1311713080E+00      0.1575412524E+00
          0                 6           2             4    7     1       0.2150800648E-02       4    7    1         0.1150123699E+00      0.1633344255E+00
          0                 7           2             4    7     1       0.9437741222E-03       4    7    1         0.5099475945E-01      0.5694711861E-01
          0                 8           1             4    7     1       0.4119700536E-03       4    7    1         0.2236336875E-01      0.2309576592E-01
          0                 9           1             4    7     1       0.1794070369E-03       4    7    1         0.9759580247E-02      0.9857554783E-02
          0                10           1             4    7     1       0.7804471199E-04       4    7    1         0.4249747443E-02      0.4265026638E-02

    ------------------------------------------------
       NWT REQUIRED           10 OUTER ITERATIONS 
       AND A TOTAL OF         17 INNER ITERATIONS.
    ------------------------------------------------

 NO OUTPUT CONTROL FOR STRESS PERIOD   35   TIME STEP    3
 
 SOLVING FOR HEAD 
                                                   Max.-Head-Change                         Max.-Flux-Residual
  Residual-Control   Outer-Iter.   Inner-Iter.     Column Row Layer    Maximum-Head-Change  Column Row Layer    Maximum-Flux-Residual          L2-NORM 
          0                 1           2             4    6     1       0.1097899633E+00       4    6    1         0.5830336093E+01      0.1265502770E+02
          0                 2           2             4    7     1       0.4299190271E-01       4    7    1         0.2316644949E+01      0.2748081570E+01
          0                 3           2             4    7     1       0.1878366161E-01       4    7    1         0.1020173802E+01      0.1039318734E+01
          0                 4           2             4    7     1       0.8151796786E-02       4    7    1         0.4439657368E+00      0.4449443756E+00
          0                 5           2             4    7     1       0.3578322337E-02       4    7    1         0.1949462319E+00      0.1952122385E+00
          0                 6           1             4    7     1       0.1498998453E-02       4    7    1         0.8183285871E-01      0.8197114465E-01
          0                 7           2             4    7     1       0.4208159780E-03       4    7    1         0.2347867198E-01      0.3597593428E-01
          0                 8           2             4    7     1       0.4576230354E-03       4    7    1         0.2440825640E-01      0.3784013856E-01
          0                 9           1             4    7     1       0.2039774249E-03       4    7    1         0.1101323379E-01      0.1217627981E-01
          0                10           1             4    7     1       0.8666141635E-04       4    7    1         0.4709827883E-02      0.4780502130E-02

    ------------------------------------------------
       NWT REQUIRED           10 OUTER ITERATIONS 
       AND A TOTAL OF         17 INNER ITERATIONS.
    ------------------------------------------------

 NO OUTPUT CONTROL FOR STRESS PERIOD   35   TIME STEP    4
 
 SOLVING FOR HEAD 
                                                   Max.-Head-Change                         Max.-Flux-Residual
  Residual-Control   Outer-Iter.   Inner-Iter.     Column Row Layer    Maximum-Head-Change  Column Row Layer    Maximum-Flux-Residual          L2-NORM 
          0                 1           2             4    6     1       0.1075545026E+00       4    6    1         0.5711359264E+01      0.1223858440E+02
          0                 2           2             4    7     1       0.3969343157E-01       4    7    1         0.2126893333E+01      0.2940870628E+01
          0                 3           2             4    7     1       0.1795430327E-01       4    7    1         0.9650284379E+00      0.1264051741E+01
          0                 4           2             4    7     1       0.9302936034E-02       4    7    1         0.4987109729E+00      0.6780391133E+00
          0                 5           2             4    7     1       0.4113487709E-02       4    7    1         0.2212396823E+00      0.2927096340E+00
          0                 6           2             4    7     1       0.1815753010E-02       4    7    1         0.9775332793E-01      0.1292012102E+00
          0                 7           2             4    7     1       0.8011164080E-03       4    7    1         0.4314026445E-01      0.5711261167E-01
          0                 8           2             4    7     1       0.3534206516E-03       4    7    1         0.1903251911E-01      0.2524661550E-01
          0                 9           2             4    7     1       0.1559179834E-03       4    7    1         0.8396314948E-02      0.1115996011E-01
          0                10           1             4    7     1       0.6878971549E-04       4    7    1         0.3704210923E-02      0.4933100224E-02

    ------------------------------------------------
       NWT REQUIRED           10 OUTER ITERATIONS 
       AND A TOTAL OF         19 INNER ITERATIONS.
    ------------------------------------------------

 NO OUTPUT CONTROL FOR STRESS PERIOD   35   TIME STEP    5
 
 SOLVING FOR HEAD 
                                                   Max.-Head-Change                         Max.-Flux-Residual
  Residual-Control   Outer-Iter.   Inner-Iter.     Column Row Layer    Maximum-Head-Change  Column Row Layer    Maximum-Flux-Residual          L2-NORM 
          0                 1           2             4    6     1       0.1031368443E+00       4    6    1         0.5471637419E+01      0.1182323923E+02
          0                 2           2             5    8     1      -0.1956493402E-01       5    8    1        -0.1049396185E+01      0.2193098043E+01
          0                 3           2             4    6     1       0.3497150522E-01       4    6    1         0.1867863359E+01      0.3580365483E+01
          0                 4           2             4    6     1       0.1535463891E-01       4    6    1         0.8299514166E+00      0.9780804153E+00
          0                 5           2             4    6     1       0.6700953238E-02       4    6    1         0.3639978093E+00      0.3768883388E+00
          0                 6           2             4    6     1       0.2916890604E-02       4    6    1         0.1587798467E+00      0.1600156852E+00
          0                 7           2             4    6     1       0.1268320382E-02       4    6    1         0.6910245606E-01      0.6924609796E-01
          0                 8           2             4    6     1       0.5512325178E-03       4    6    1         0.3004455833E-01      0.3006797096E-01
          0                 9           2             4    6     1       0.2395266231E-03       4    6    1         0.1305738076E-01      0.1306304234E-01
          0                10           1             4    6     1       0.1040723909E-03       4    6    1         0.5673725899E-02      0.5675566218E-02
          0                11           1             4    6     1       0.4521695550E-04       4    6    1         0.2465172035E-02      0.2465873965E-02

    ------------------------------------------------
       NWT REQUIRED           11 OUTER ITERATIONS 
       AND A TOTAL OF         20 INNER ITERATIONS.
    ------------------------------------------------

 NO OUTPUT CONTROL FOR STRESS PERIOD   35   TIME STEP    6
 
 SOLVING FOR HEAD 
                                                   Max.-Head-Change                         Max.-Flux-Residual
  Residual-Control   Outer-Iter.   Inner-Iter.     Column Row Layer    Maximum-Head-Change  Column Row Layer    Maximum-Flux-Residual          L2-NORM 
          0                 1           2             4    6     1       0.9728012282E-01       4    6    1         0.5151064454E+01      0.1144422301E+02
          0                 2           2             4    6     1       0.4281384880E-01       4    6    1         0.2319871716E+01      0.2699159345E+01
          0                 3           2             4    6     1       0.1872755831E-01       4    6    1         0.1015786882E+01      0.1097824547E+01
          0                 4           2             4    6     1       0.8181746949E-02       4    6    1         0.4441621255E+00      0.4787104896E+00
          0                 5           2             4    6     1       0.3573747877E-02       4    6    1         0.1940144789E+00      0.2097963561E+00
          0                 6           2             4    6     1       0.1561183609E-02       4    6    1         0.8474378285E-01      0.9200866310E-01
          0                 7           2             4    6     1       0.6821475570E-03       4    6    1         0.3702125136E-01      0.4036560205E-01
          0                 8           2             4    6     1       0.2981316753E-03       4    6    1         0.1617685382E-01      0.1771479334E-01
          0                 9           2             4    6     1       0.1303301027E-03       4    6    1         0.7070396234E-02      0.7776707600E-02
          0                10           1             4    6     1       0.5698840274E-04       4    6    1         0.3091009003E-02      0.3414930819E-02

    ------------------------------------------------
       NWT REQUIRED           10 OUTER ITERATIONS 
       AND A TOTAL OF         19 INNER ITERATIONS.
    ------------------------------------------------

 NO OUTPUT CONTROL FOR STRESS PERIOD   35   TIME STEP    7
 
 SOLVING FOR HEAD 
                                                   Max.-Head-Change                         Max.-Flux-Residual
  Residual-Control   Outer-Iter.   Inner-Iter.     Column Row Layer    Maximum-Head-Change  Column Row Layer    Maximum-Flux-Residual          L2-NORM 
          0                 1           2             4    6     1       0.9186139276E-01       4    6    1         0.4856429765E+01      0.1126299578E+02
          0                 2           2             5    6     1       0.3131237979E-01       5    6    1         0.1713805544E+01      0.2341982319E+01
          0                 3           2             5    6     1       0.1346637028E-01       5    6    1         0.7412750800E+00      0.7708120830E+00
          0                 4           2             5    6     1       0.5761621429E-02       5    6    1         0.3182718163E+00      0.3198490283E+00
          0                 5           2             5    6     1       0.2461036452E-02       5    6    1         0.1360718931E+00      0.1361961377E+00
          0                 6           2             5    6     1       0.1050650547E-02       5    6    1         0.5810938513E-01      0.5812754520E-01
          0                 7           2             5    6     1       0.4484592322E-03       5    6    1         0.2480588661E-01      0.2481068646E-01
          0                 8           2             5    6     1       0.1914093354E-03       5    6    1         0.1058788514E-01      0.1058961015E-01
          0                 9           1             5    6     1       0.8169496511E-04       5    6    1         0.4519038609E-02      0.4519733886E-02

    ------------------------------------------------
       NWT REQUIRED            9 OUTER ITERATIONS 
       AND A TOTAL OF         17 INNER ITERATIONS.
    ------------------------------------------------

 NO OUTPUT CONTROL FOR STRESS PERIOD   35   TIME STEP    8
 
 SOLVING FOR HEAD 
                                                   Max.-Head-Change                         Max.-Flux-Residual
  Residual-Control   Outer-Iter.   Inner-Iter.     Column Row Layer    Maximum-Head-Change  Column Row Layer    Maximum-Flux-Residual          L2-NORM 
          0                 1           2             4    6     1       0.8968961713E-01       4    6    1         0.4746471249E+01      0.1144792598E+02
          0                 2           2             5    6     1       0.2806640178E-01       5    6    1         0.1541800486E+01      0.1981466967E+01
          0                 3           2             5    6     1       0.1201783063E-01       5    6    1         0.6636643018E+00      0.6792351005E+00
          0                 4           2             5    6     1       0.5133732081E-02       5    6    1         0.2838370481E+00      0.2845634839E+00
          0                 5           2             5    6     1       0.2191311555E-02       5    6    1         0.1212091422E+00      0.1212645937E+00
          0                 6           2             5    6     1       0.9351156185E-03       5    6    1         0.5173244220E-01      0.5174048573E-01
          0                 7           2             5    6     1       0.3990163032E-03       5    6    1         0.2207543413E-01      0.2207757697E-01
          0                 8           2             5    6     1       0.1702567174E-03       5    6    1         0.9419542677E-02      0.9420317367E-02
          0                 9           1             5    6     1       0.7264639101E-04       5    6    1         0.4019220909E-02      0.4019533873E-02

    ------------------------------------------------
       NWT REQUIRED            9 OUTER ITERATIONS 
       AND A TOTAL OF         17 INNER ITERATIONS.
    ------------------------------------------------

 NO OUTPUT CONTROL FOR STRESS PERIOD   35   TIME STEP    9
 
 SOLVING FOR HEAD 
                                                   Max.-Head-Change                         Max.-Flux-Residual
  Residual-Control   Outer-Iter.   Inner-Iter.     Column Row Layer    Maximum-Head-Change  Column Row Layer    Maximum-Flux-Residual          L2-NORM 
          0                 1           2             4    6     1       0.8571369228E-01       4    6    1         0.4657595715E+01      0.1085113126E+02
          0                 2           2             5    6     1       0.2536739314E-01       5    6    1         0.1393433925E+01      0.1783200422E+01
          0                 3           2             5    6     1       0.1086203924E-01       5    6    1         0.5998581561E+00      0.6102443895E+00
          0                 4           2             5    6     1       0.4639778029E-02       5    6    1         0.2565387044E+00      0.2569674423E+00
          0                 5           2             5    6     1       0.1980381654E-02       5    6    1         0.1095458031E+00      0.1095838271E+00
          0                 6           2             5    6     1       0.8450725280E-03       5    6    1         0.4675246424E-01      0.4675898458E-01
          0                 7           2             5    6     1       0.3605828307E-03       5    6    1         0.1994963909E-01      0.1995150945E-01
          0                 8           2             5    6     1       0.1538527409E-03       5    6    1         0.8512195196E-02      0.8512886414E-02
          0                 9           1             5    6     1       0.6564504733E-04       5    6    1         0.3631953860E-02      0.3632235048E-02

    ------------------------------------------------
       NWT REQUIRED            9 OUTER ITERATIONS 
       AND A TOTAL OF         17 INNER ITERATIONS.
    ------------------------------------------------

 NO OUTPUT CONTROL FOR STRESS PERIOD   35   TIME STEP   10
 
 SOLVING FOR HEAD 
                                                   Max.-Head-Change                         Max.-Flux-Residual
  Residual-Control   Outer-Iter.   Inner-Iter.     Column Row Layer    Maximum-Head-Change  Column Row Layer    Maximum-Flux-Residual          L2-NORM 
          0                 1           2             4    6     1       0.8001030301E-01       4    6    1         0.4432607505E+01      0.1045908548E+02
          0                 2           2             4    6     1       0.1072541453E-01       4    6    1         0.5882646212E+00      0.1142541984E+01
          0                 3           2             4    6     1       0.1438867216E-02       4    6    1         0.7937125631E-01      0.1130410069E+00
          0                 4           2             4    6     1       0.1931812404E-03       4    6    1         0.1062115630E-01      0.1269395827E-01
          0                 5           1             4    6     1       0.2595648906E-04       4    6    1         0.1427323139E-02      0.1647710572E-02

    ------------------------------------------------
       NWT REQUIRED            5 OUTER ITERATIONS 
       AND A TOTAL OF          9 INNER ITERATIONS.
    ------------------------------------------------

 NO OUTPUT CONTROL FOR STRESS PERIOD   35   TIME STEP   11
 
 SOLVING FOR HEAD 
                                                   Max.-Head-Change                         Max.-Flux-Residual
  Residual-Control   Outer-Iter.   Inner-Iter.     Column Row Layer    Maximum-Head-Change  Column Row Layer    Maximum-Flux-Residual          L2-NORM 
          0                 1           2             5    6     1      -0.9155634339E-01       5    6    1        -0.5117477350E+01      0.1086360898E+02
          0                 2           2             4    6     1       0.9976290447E-02       4    6    1         0.5353382592E+00      0.1124058871E+01
          0                 3           2             4    6     1       0.1360118282E-02       4    6    1         0.7480927021E-01      0.1017952001E+00
          0                 4           2             4    6     1       0.1724968647E-03       4    6    1         0.9402230822E-02      0.9563285879E-02
          0                 5           1             4    6     1       0.3643207747E-04       4    6    1         0.1966994311E-02      0.2491777649E-02

    ------------------------------------------------
       NWT REQUIRED            5 OUTER ITERATIONS 
       AND A TOTAL OF          9 INNER ITERATIONS.
    ------------------------------------------------

 NO OUTPUT CONTROL FOR STRESS PERIOD   35   TIME STEP   12
 
 SOLVING FOR HEAD 
                                                   Max.-Head-Change                         Max.-Flux-Residual
  Residual-Control   Outer-Iter.   Inner-Iter.     Column Row Layer    Maximum-Head-Change  Column Row Layer    Maximum-Flux-Residual          L2-NORM 
          0                 1           2             5    6     1      -0.8555338137E-01       5    6    1        -0.4777909354E+01      0.1035907690E+02
          0                 2           2             4    6     1       0.2060091564E-01       4    6    1         0.1115181690E+01      0.1475044867E+01
          0                 3           2             4    6     1       0.8944922771E-02       4    6    1         0.4885628269E+00      0.4931722262E+00
          0                 4           2             4    6     1       0.3883885480E-02       4    6    1         0.2118375087E+00      0.2118600789E+00
          0                 5           2             4    6     1       0.1686383354E-02       4    6    1         0.9198831342E-01      0.9198919130E-01
          0                 6           2             4    6     1       0.7322278044E-03       4    6    1         0.3994137658E-01      0.3994176501E-01
          0                 7           2             4    6     1       0.3179333851E-03       4    6    1         0.1734254709E-01      0.1734271617E-01
          0                 8           2             4    6     1       0.1380467082E-03       4    6    1         0.7530136691E-02      0.7530210046E-02
          0                 9           1             4    6     1       0.5993989513E-04       4    6    1         0.3269586288E-02      0.3269618127E-02

    ------------------------------------------------
       NWT REQUIRED            9 OUTER ITERATIONS 
       AND A TOTAL OF         17 INNER ITERATIONS.
    ------------------------------------------------

 NO OUTPUT CONTROL FOR STRESS PERIOD   35   TIME STEP   13
 
 SOLVING FOR HEAD 
                                                   Max.-Head-Change                         Max.-Flux-Residual
  Residual-Control   Outer-Iter.   Inner-Iter.     Column Row Layer    Maximum-Head-Change  Column Row Layer    Maximum-Flux-Residual          L2-NORM 
          0                 1           2             5    6     1      -0.7939522886E-01       5    6    1        -0.4412020898E+01      0.9493761711E+01
          0                 2           2             5    6     1       0.7831587541E-02       5    6    1         0.4403102817E+00      0.9628551671E+00
          0                 3           2             4    6     1       0.7073917735E-03       4    6    1         0.3913119746E-01      0.7532254710E-01
          0                 4           1             4    6     1       0.1022497149E-03       4    6    1         0.5545572713E-02      0.6435176941E-02
          0                 5           1             4    6     1       0.1100926460E-04       4    6    1         0.6052353040E-03      0.7286592546E-03

    ------------------------------------------------
       NWT REQUIRED            5 OUTER ITERATIONS 
       AND A TOTAL OF          8 INNER ITERATIONS.
    ------------------------------------------------

 NO OUTPUT CONTROL FOR STRESS PERIOD   35   TIME STEP   14
 
 SOLVING FOR HEAD 
                                                   Max.-Head-Change                         Max.-Flux-Residual
  Residual-Control   Outer-Iter.   Inner-Iter.     Column Row Layer    Maximum-Head-Change  Column Row Layer    Maximum-Flux-Residual          L2-NORM 
          0                 1           2             4    6     1      -0.9567829222E-01       4    6    1        -0.5146604747E+01      0.1027420402E+02
          0                 2           2             4    6     1       0.6506178753E-02       4    6    1         0.3610090018E+00      0.7702600741E+00
          0                 3           2             5    8     1       0.1979289242E-02       5    8    1         0.1090944628E+00      0.2475157834E+00
          0                 4           2             5    8     1      -0.1348014065E-03       5    8    1        -0.7645014066E-02      0.1724573754E-01
          0                 5           1             5    8     1       0.5365144770E-05       5    8    1         0.3130456159E-03      0.7045394833E-03

    ------------------------------------------------
       NWT REQUIRED            5 OUTER ITERATIONS 
       AND A TOTAL OF          9 INNER ITERATIONS.
    ------------------------------------------------

 NO OUTPUT CONTROL FOR STRESS PERIOD   35   TIME STEP   15
 
 SOLVING FOR HEAD 
                                                   Max.-Head-Change                         Max.-Flux-Residual
  Residual-Control   Outer-Iter.   Inner-Iter.     Column Row Layer    Maximum-Head-Change  Column Row Layer    Maximum-Flux-Residual          L2-NORM 
          0                 1           2             4    6     1      -0.9310450348E-01       4    6    1        -0.5006228590E+01      0.9973249214E+01
          0                 2           2             4    6     1       0.9055914090E-02       4    6    1         0.5005807064E+00      0.9972677982E+00
          0                 3           2             4    6     1      -0.2622339309E-02       4    6    1        -0.1473829144E+00      0.3392999277E+00
          0                 4           2             4    7     1       0.2077288018E-02       4    6    1         0.1183697875E+00      0.2889612527E+00
          0                 5           1             4    7     1      -0.2561376983E-04       4    6    1        -0.1499490473E-02      0.3662002671E-02

    ------------------------------------------------
       NWT REQUIRED            5 OUTER ITERATIONS 
       AND A TOTAL OF          9 INNER ITERATIONS.
    ------------------------------------------------

 NO OUTPUT CONTROL FOR STRESS PERIOD   35   TIME STEP   16
 
 SOLVING FOR HEAD 
                                                   Max.-Head-Change                         Max.-Flux-Residual
  Residual-Control   Outer-Iter.   Inner-Iter.     Column Row Layer    Maximum-Head-Change  Column Row Layer    Maximum-Flux-Residual          L2-NORM 
          0                 1           2             4    6     1      -0.9001624565E-01       4    6    1        -0.4837856760E+01      0.9671200022E+01
          0                 2           2             4    6     1       0.8755558418E-02       4    6    1         0.4837467897E+00      0.9670765641E+00
          0                 3           2             4    6     1      -0.2629705257E-02       4    6    1        -0.1477615907E+00      0.3413454101E+00
          0                 4           2             4    7     1       0.2105799991E-02       4    6    1         0.1199423673E+00      0.2928636957E+00
          0                 5           1             4    7     1      -0.2596550695E-04       4    6    1        -0.1519401503E-02      0.3711364675E-02

    ------------------------------------------------
       NWT REQUIRED            5 OUTER ITERATIONS 
       AND A TOTAL OF          9 INNER ITERATIONS.
    ------------------------------------------------

 NO OUTPUT CONTROL FOR STRESS PERIOD   35   TIME STEP   17
 
 SOLVING FOR HEAD 
                                                   Max.-Head-Change                         Max.-Flux-Residual
  Residual-Control   Outer-Iter.   Inner-Iter.     Column Row Layer    Maximum-Head-Change  Column Row Layer    Maximum-Flux-Residual          L2-NORM 
          0                 1           2             4    6     1      -0.8707156443E-01       4    6    1        -0.4677382465E+01      0.9385095215E+01
          0                 2           2             4    6     1       0.7439561722E-02       4    6    1         0.4116013725E+00      0.8191479714E+00
          0                 3           2             5    8     1       0.2820342380E-03       5    8    1         0.1559752041E-01      0.3495228768E-01
          0                 4           2             4    7     1       0.5373627855E-03       4    6    1         0.2944562448E-01      0.7071498420E-01
          0                 5           2             4    7     1      -0.4099641676E-03       5    6    1        -0.2267275942E-01      0.5499721661E-01
          0                 6           2             4    7     1      -0.7931802347E-03       4    6    1        -0.4507241136E-01      0.1088581882E+00
          0                 7           2             4    7     1       0.8282848910E-03       5    6    1         0.4705106538E-01      0.1142720726E+00
          0                 8           1             4   13     1      -0.4600962181E-04       4   13    1        -0.2865661066E-02      0.6959693366E-02

    ------------------------------------------------
       NWT REQUIRED            8 OUTER ITERATIONS 
       AND A TOTAL OF         15 INNER ITERATIONS.
    ------------------------------------------------

 NO OUTPUT CONTROL FOR STRESS PERIOD   35   TIME STEP   18
 
 SOLVING FOR HEAD 
                                                   Max.-Head-Change                         Max.-Flux-Residual
  Residual-Control   Outer-Iter.   Inner-Iter.     Column Row Layer    Maximum-Head-Change  Column Row Layer    Maximum-Flux-Residual          L2-NORM 
          0                 1           2             4    6     1      -0.8425484737E-01       4    6    1        -0.4523954628E+01      0.9112550387E+01
          0                 2           2             4    6     1       0.8195214661E-02       4    6    1         0.4523622852E+00      0.9112099584E+00
          0                 3           2             4    6     1      -0.5580684734E-03       4    6    1        -0.3166568752E-01      0.6378501359E-01
          0                 4           1             4    6     1       0.2220605241E-04       4    6    1         0.1295126965E-02      0.2608792864E-02

    ------------------------------------------------
       NWT REQUIRED            4 OUTER ITERATIONS 
       AND A TOTAL OF          7 INNER ITERATIONS.
    ------------------------------------------------

 NO OUTPUT CONTROL FOR STRESS PERIOD   35   TIME STEP   19
 
 SOLVING FOR HEAD 
                                                   Max.-Head-Change                         Max.-Flux-Residual
  Residual-Control   Outer-Iter.   Inner-Iter.     Column Row Layer    Maximum-Head-Change  Column Row Layer    Maximum-Flux-Residual          L2-NORM 
          0                 1           2             4    6     1      -0.8157429853E-01       4    6    1        -0.4378003752E+01      0.8854975951E+01
          0                 2           2             4    6     1       0.5805977957E-02       4    6    1         0.3217926137E+00      0.6456057299E+00
          0                 3           2             5    8     1       0.1991918797E-02       5    8    1         0.1098081682E+00      0.2502005781E+00
          0                 4           2             4    7     1      -0.1439761132E-02       5    8    1        -0.8015354448E-01      0.1956469032E+00
          0                 5           2             4   13     1      -0.1646705615E-03       4   13    1        -0.1025617266E-01      0.1847982680E-01
          0                 6           2             4    7     1       0.1171244933E-02       4    6    1         0.6648182685E-01      0.1628623974E+00
          0                 7           2             4    7     1       0.1833314847E-03       4    7    1         0.1040587944E-01      0.2548810569E-01
          0                 8           1             4    7     1      -0.2265749359E-05       5    6    1        -0.1323425358E-03      0.3242652425E-03

    ------------------------------------------------
       NWT REQUIRED            8 OUTER ITERATIONS 
       AND A TOTAL OF         15 INNER ITERATIONS.
    ------------------------------------------------

 NO OUTPUT CONTROL FOR STRESS PERIOD   35   TIME STEP   20
 
 SOLVING FOR HEAD 
                                                   Max.-Head-Change                         Max.-Flux-Residual
  Residual-Control   Outer-Iter.   Inner-Iter.     Column Row Layer    Maximum-Head-Change  Column Row Layer    Maximum-Flux-Residual          L2-NORM 
          0                 1           2             4    6     1      -0.7901522309E-01       4    6    1        -0.4238729608E+01      0.8610222145E+01
          0                 2           2             4    6     1       0.7685611481E-02       4    6    1         0.4238445454E+00      0.8609834346E+00
          0                 3           2             4    6     1      -0.5233657077E-03       4    6    1        -0.2966939982E-01      0.6026911140E-01
          0                 4           1             4    6     1       0.2082520045E-04       4    6    1         0.1213478899E-02      0.2465001831E-02

    ------------------------------------------------
       NWT REQUIRED            4 OUTER ITERATIONS 
       AND A TOTAL OF          7 INNER ITERATIONS.
    ------------------------------------------------

 NO OUTPUT CONTROL FOR STRESS PERIOD   35   TIME STEP   21
 
 SOLVING FOR HEAD 
                                                   Max.-Head-Change                         Max.-Flux-Residual
  Residual-Control   Outer-Iter.   Inner-Iter.     Column Row Layer    Maximum-Head-Change  Column Row Layer    Maximum-Flux-Residual          L2-NORM 
          0                 1           2             4    6     1      -0.7657052617E-01       4    6    1        -0.4105740055E+01      0.8377330537E+01
          0                 2           2             4    6     1       0.5348157180E-02       4    6    1         0.2961442836E+00      0.6004529388E+00
          0                 3           2             5    8     1       0.1974360104E-02       5    8    1         0.1088464170E+00      0.2486341896E+00
          0                 4           2             5    8     1      -0.1344660543E-03       5    8    1        -0.7625765128E-02      0.1736145830E-01
          0                 5           1             5    8     1       0.5351797443E-05       5    8    1         0.3121826355E-03      0.7098018670E-03

    ------------------------------------------------
       NWT REQUIRED            5 OUTER ITERATIONS 
       AND A TOTAL OF          9 INNER ITERATIONS.
    ------------------------------------------------

 NO OUTPUT CONTROL FOR STRESS PERIOD   35   TIME STEP   22
 
 SOLVING FOR HEAD 
                                                   Max.-Head-Change                         Max.-Flux-Residual
  Residual-Control   Outer-Iter.   Inner-Iter.     Column Row Layer    Maximum-Head-Change  Column Row Layer    Maximum-Flux-Residual          L2-NORM 
          0                 1           2             4    6     1      -0.7423459411E-01       4    6    1        -0.3978725394E+01      0.8155512612E+01
          0                 2           2             4    6     1       0.7220644781E-02       4    6    1         0.3978481147E+00      0.8155178319E+00
          0                 3           2             4    6     1      -0.2518675057E-02       4    6    1        -0.1413781012E+00      0.3313196679E+00
          0                 4           2             4    7     1       0.2098405599E-02       4    6    1         0.1193108421E+00      0.2915648977E+00
          0                 5           1             4    7     1      -0.2587433090E-04       4    6    1        -0.1511319951E-02      0.3695309227E-02

    ------------------------------------------------
       NWT REQUIRED            5 OUTER ITERATIONS 
       AND A TOTAL OF          9 INNER ITERATIONS.
    ------------------------------------------------

 NO OUTPUT CONTROL FOR STRESS PERIOD   35   TIME STEP   23
 
 SOLVING FOR HEAD 
                                                   Max.-Head-Change                         Max.-Flux-Residual
  Residual-Control   Outer-Iter.   Inner-Iter.     Column Row Layer    Maximum-Head-Change  Column Row Layer    Maximum-Flux-Residual          L2-NORM 
          0                 1           2             4    6     1      -0.7200083297E-01       4    6    1        -0.3857321205E+01      0.7944018843E+01
          0                 2           2             4    6     1       0.7003386227E-02       4    6    1         0.3857094456E+00      0.7943707448E+00
          0                 3           2             4    6     1      -0.2524875249E-02       4    6    1        -0.1417034011E+00      0.3328944618E+00
          0                 4           2             4    7     1       0.2119809416E-02       4    6    1         0.1204991507E+00      0.2945093263E+00
          0                 5           2             4    7     1      -0.1695706677E-01       4    6    1        -0.9892577369E+00      0.2433916713E+01
          0                 6           2             4    7     1       0.1623189083E-01       4    7    1         0.9731806788E+00      0.2383779666E+01
          0                 7           2             4    7     1       0.6698245420E-03       5    6    1         0.4017146627E-01      0.9839210000E-01
          0                 8           1             4    7     1       0.2763445773E-04       5    6    1         0.1657511468E-02      0.4059744484E-02

    ------------------------------------------------
       NWT REQUIRED            8 OUTER ITERATIONS 
       AND A TOTAL OF         15 INNER ITERATIONS.
    ------------------------------------------------

 NO OUTPUT CONTROL FOR STRESS PERIOD   35   TIME STEP   24
 
 SOLVING FOR HEAD 
                                                   Max.-Head-Change                         Max.-Flux-Residual
  Residual-Control   Outer-Iter.   Inner-Iter.     Column Row Layer    Maximum-Head-Change  Column Row Layer    Maximum-Flux-Residual          L2-NORM 
          0                 1           2             4    6     1      -0.6986461720E-01       4    6    1        -0.3741272391E+01      0.7742281298E+01
          0                 2           2             4    6     1       0.6795614072E-02       4    6    1         0.3741061695E+00      0.7741982759E+00
          0                 3           2             4    6     1      -0.4627591374E-03       4    6    1        -0.2618764251E-01      0.5419398873E-01
          0                 4           1             4    6     1       0.1841361386E-04       4    6    1         0.1071075151E-02      0.2216523021E-02

    ------------------------------------------------
       NWT REQUIRED            4 OUTER ITERATIONS 
       AND A TOTAL OF          7 INNER ITERATIONS.
    ------------------------------------------------

 NO OUTPUT CONTROL FOR STRESS PERIOD   35   TIME STEP   25
 
 SOLVING FOR HEAD 
                                                   Max.-Head-Change                         Max.-Flux-Residual
  Residual-Control   Outer-Iter.   Inner-Iter.     Column Row Layer    Maximum-Head-Change  Column Row Layer    Maximum-Flux-Residual          L2-NORM 
          0                 1           2             4    6     1      -0.6782009394E-01       4    6    1        -0.3630255358E+01      0.7549414488E+01
          0                 2           2             4    6     1       0.6596759196E-02       4    6    1         0.3630059409E+00      0.7549136741E+00
          0                 3           2             4    6     1      -0.4492176475E-03       4    6    1        -0.2541061221E-01      0.5284405322E-01
          0                 4           1             4    6     1       0.1787478699E-04       4    6    1         0.1039294653E-02      0.2161312916E-02

    ------------------------------------------------
       NWT REQUIRED            4 OUTER ITERATIONS 
       AND A TOTAL OF          7 INNER ITERATIONS.
    ------------------------------------------------

 NO OUTPUT CONTROL FOR STRESS PERIOD   35   TIME STEP   26
 
 SOLVING FOR HEAD 
                                                   Max.-Head-Change                         Max.-Flux-Residual
  Residual-Control   Outer-Iter.   Inner-Iter.     Column Row Layer    Maximum-Head-Change  Column Row Layer    Maximum-Flux-Residual          L2-NORM 
          0                 1           2             4    6     1      -0.6586274144E-01       4    6    1        -0.3524020803E+01      0.7364967538E+01
          0                 2           2             4    6     1       0.6406381800E-02       4    6    1         0.3523838341E+00      0.7364736953E+00
          0                 3           2             4    6     1      -0.4362533733E-03       4    6    1        -0.2466704677E-01      0.5155296572E-01
          0                 4           1             4    6     1       0.1735895823E-04       4    6    1         0.1008884633E-02      0.2108514830E-02

    ------------------------------------------------
       NWT REQUIRED            4 OUTER ITERATIONS 
       AND A TOTAL OF          7 INNER ITERATIONS.
    ------------------------------------------------

 NO OUTPUT CONTROL FOR STRESS PERIOD   35   TIME STEP   27
 
 SOLVING FOR HEAD 
                                                   Max.-Head-Change                         Max.-Flux-Residual
  Residual-Control   Outer-Iter.   Inner-Iter.     Column Row Layer    Maximum-Head-Change  Column Row Layer    Maximum-Flux-Residual          L2-NORM 
          0                 1           2             4    6     1      -0.6398780040E-01       4    6    1        -0.3422306178E+01      0.7188403401E+01
          0                 2           2             4    6     1       0.6224019455E-02       4    6    1         0.3422136252E+00      0.7188457108E+00
          0                 3           2             4    6     1      -0.4238350822E-03       4    6    1        -0.2395512488E-01      0.5031929587E-01
          0                 4           1             4    6     1       0.1686479235E-04       4    6    1         0.9797652283E-03      0.2058039825E-02

    ------------------------------------------------
       NWT REQUIRED            4 OUTER ITERATIONS 
       AND A TOTAL OF          7 INNER ITERATIONS.
    ------------------------------------------------

 NO OUTPUT CONTROL FOR STRESS PERIOD   35   TIME STEP   28
 
 SOLVING FOR HEAD 
                                                   Max.-Head-Change                         Max.-Flux-Residual
  Residual-Control   Outer-Iter.   Inner-Iter.     Column Row Layer    Maximum-Head-Change  Column Row Layer    Maximum-Flux-Residual          L2-NORM 
          0                 1           2             4    6     1      -0.6219134467E-01       4    6    1        -0.3324894721E+01      0.7019219428E+01
          0                 2           2             4    6     1       0.6049290008E-02       4    6    1         0.3324736262E+00      0.7018994188E+00
          0                 3           2             4    6     1      -0.4119364714E-03       4    6    1        -0.2327331269E-01      0.4913305556E-01
          0                 4           1             4    6     1       0.1639133654E-04       4    6    1         0.9518791242E-03      0.2009545583E-02

    ------------------------------------------------
       NWT REQUIRED            4 OUTER ITERATIONS 
       AND A TOTAL OF          7 INNER ITERATIONS.
    ------------------------------------------------

 NO OUTPUT CONTROL FOR STRESS PERIOD   35   TIME STEP   29
 
 SOLVING FOR HEAD 
                                                   Max.-Head-Change                         Max.-Flux-Residual
  Residual-Control   Outer-Iter.   Inner-Iter.     Column Row Layer    Maximum-Head-Change  Column Row Layer    Maximum-Flux-Residual          L2-NORM 
          0                 1           2             4    6     1      -0.6046886994E-01       4    6    1        -0.3231537825E+01      0.6856945370E+01
          0                 2           2             4    6     1       0.5881713110E-02       4    6    1         0.3231366792E+00      0.6856683587E+00
          0                 3           2             4    6     1      -0.4036503897E-03       4    6    1        -0.2279475983E-01      0.4838412706E-01
          0                 4           1             4    6     1       0.1910042068E-04       4    6    1         0.1107241250E-02      0.2373782072E-02

    ------------------------------------------------
       NWT REQUIRED            4 OUTER ITERATIONS 
       AND A TOTAL OF          7 INNER ITERATIONS.
    ------------------------------------------------

 NO OUTPUT CONTROL FOR STRESS PERIOD   35   TIME STEP   30



 STREAM LISTING     PERIOD     35   STEP       30

 LAYER ROW COL. STREAM  RCH.  FLOW INTO     FLOW TO   FLOW OUT OF   OVRLND.     DIRECT     STREAM       STREAM     STREAM     STREAM   STREAMBED  STREAMBED
                SEG.NO.  NO.  STRM. RCH.    AQUIFER    STRM. RCH.    RUNOFF     PRECIP       ET          HEAD       DEPTH      WIDTH   CONDCTNC.   GRADIENT

   1    1    1     1     1    2.6249E+01  2.5084E-01   2.5998E+01  0.000E+00  0.000E+00  0.000E+00  1.09424E+03  1.197E+00  1.328E+01  5.977E-02  1.399E+00
   1    2    2     1     2    2.5998E+01  3.8795E-01   2.5610E+01  0.000E+00  0.000E+00  0.000E+00  1.08925E+03  1.192E+00  1.322E+01  9.254E-02  1.397E+00
   1    3    3     1     3    2.5610E+01  3.3035E-01   2.5280E+01  0.000E+00  0.000E+00  0.000E+00  1.08361E+03  1.187E+00  1.315E+01  7.890E-02  1.396E+00
   1    3    4     1     4    2.5280E+01  3.0378E-01   2.4976E+01  0.000E+00  0.000E+00  0.000E+00  1.07859E+03  1.182E+00  1.309E+01  7.264E-02  1.394E+00
   1    4    5     2     1    2.2976E+01  3.2316E-01   2.2653E+01  0.000E+00  0.000E+00  0.000E+00  1.07308E+03  1.143E+00  1.200E+01  7.800E-02  1.381E+00
   1    5    6     2     2    2.2653E+01  2.4807E-01   2.2405E+01  0.000E+00  0.000E+00  0.000E+00  1.06764E+03  1.134E+00  1.200E+01  6.000E-02  1.378E+00
   1    6    6     2     3    2.2405E+01  2.4762E-01   2.2157E+01  0.000E+00  0.000E+00  0.000E+00  1.06292E+03  1.127E+00  1.200E+01  6.000E-02  1.376E+00
   1    7    6     2     4    2.2157E+01  2.4717E-01   2.1910E+01  0.000E+00  0.000E+00  0.000E+00  1.05819E+03  1.119E+00  1.200E+01  6.000E-02  1.373E+00
   1    8    6     2     5    2.1910E+01  2.4671E-01   2.1664E+01  0.000E+00  0.000E+00  0.000E+00  1.05347E+03  1.112E+00  1.200E+01  6.000E-02  1.371E+00
   1    3    5     3     1    2.0000E+00  2.8252E-01   1.7175E+00  0.000E+00  0.000E+00  0.000E+00  1.07555E+03  1.909E+00  9.636E+00  7.227E-02  1.955E+00
   1    3    6     3     2    1.7175E+00  2.4905E-01   1.4684E+00  0.000E+00  0.000E+00  0.000E+00  1.07264E+03  1.727E+00  8.909E+00  6.682E-02  1.864E+00
   1    3    7     3     3    1.4684E+00  1.9718E-01   1.2712E+00  0.000E+00  0.000E+00  0.000E+00  1.06987E+03  1.555E+00  8.218E+00  5.547E-02  1.777E+00
   1    4    8     3     4    1.2712E+00  2.2567E-01   1.0456E+00  0.000E+00  0.000E+00  0.000E+00  1.06682E+03  1.364E+00  7.455E+00  6.709E-02  1.682E+00
   1    5    8     3     5    1.0456E+00  1.5790E-01   8.8768E-01  0.000E+00  0.000E+00  0.000E+00  1.06362E+03  1.164E+00  6.655E+00  4.991E-02  1.582E+00
   1    6    8     3     6    8.8768E-01  5.5980E-02   8.3170E-01  0.000E+00  0.000E+00  0.000E+00  1.06158E+03  1.036E+00  6.145E+00  1.844E-02  1.518E+00
   1    5   10     4     1    1.0000E+01  9.0919E-02   9.9091E+00  0.000E+00  0.000E+00  0.000E+00  1.07836E+03  6.368E-01  1.000E+01  2.500E-02  1.212E+00
   1    5    9     4     2    9.9091E+00  1.8158E-01   9.7275E+00  0.000E+00  0.000E+00  0.000E+00  1.07154E+03  6.315E-01  1.000E+01  5.000E-02  1.211E+00
   1    6    8     4     3    9.7275E+00  1.2689E-01   9.6006E+00  0.000E+00  0.000E+00  0.000E+00  1.06381E+03  6.256E-01  1.000E+01  3.500E-02  1.209E+00
   1    6    8     5     1    1.0432E+01  2.2686E-01   1.0205E+01  0.000E+00  0.000E+00  0.000E+00  1.05868E+03  6.790E-01  1.542E+01  6.166E-02  1.226E+00
   1    7    7     5     2    1.0205E+01  2.7894E-01   9.9265E+00  0.000E+00  0.000E+00  0.000E+00  1.05417E+03  6.732E-01  1.519E+01  7.594E-02  1.224E+00
   1    8    7     5     3    9.9265E+00  1.9221E-01   9.7343E+00  0.000E+00  0.000E+00  0.000E+00  1.04992E+03  6.676E-01  1.497E+01  5.241E-02  1.223E+00
   1    8    6     5     4    9.7343E+00  1.3577E-01   9.5985E+00  0.000E+00  0.000E+00  0.000E+00  1.04691E+03  6.637E-01  1.482E+01  3.706E-02  1.221E+00
   1    9    6     6     1    3.1261E+01  2.6356E-01   3.0997E+01  0.000E+00  0.000E+00  0.000E+00  1.04412E+03  1.393E+00  1.200E+01  6.000E-02  1.464E+00
   1   10    7     6     2    3.0997E+01  2.6314E-01   3.0734E+01  0.000E+00  0.000E+00  0.000E+00  1.03957E+03  1.386E+00  1.200E+01  6.000E-02  1.462E+00
   1   11    7     6     3    3.0734E+01  2.6271E-01   3.0472E+01  0.000E+00  0.000E+00  0.000E+00  1.03501E+03  1.379E+00  1.200E+01  6.000E-02  1.460E+00
   1   12    7     6     4    3.0472E+01  2.6229E-01   3.0209E+01  0.000E+00  0.000E+00  0.000E+00  1.03046E+03  1.371E+00  1.200E+01  6.000E-02  1.457E+00
   1   13    7     6     5    3.0209E+01  5.3902E-03   3.0204E+01  0.000E+00  0.000E+00  0.000E+00  1.02728E+03  1.368E+00  1.200E+01  2.400E-02  7.486E-02
   1   14    9     7     1    1.5000E+02  1.3477E+00   1.4865E+02  0.000E+00  0.000E+00  0.000E+00  1.03987E+03  2.288E+00  5.529E+01  5.593E-01  8.032E-01
   1   13    8     7     2    1.4865E+02  1.8521E+00   1.4680E+02  0.000E+00  0.000E+00  0.000E+00  1.03478E+03  2.279E+00  5.526E+01  6.148E-01  1.004E+00
   1   13    7     7     3    1.4680E+02  1.4728E+00   1.4533E+02  0.000E+00  0.000E+00  0.000E+00  1.02969E+03  2.270E+00  5.522E+01  5.584E-01  8.791E-01
   1   13    6     8     1    1.7553E+02  9.3806E-01   1.7459E+02  0.000E+00  0.000E+00  0.000E+00  1.02486E+03  2.985E+00  4.328E+01  4.410E-01  7.090E-01
   1   13    5     8     2    1.7459E+02  1.7308E-01   1.7442E+02  0.000E+00  0.000E+00  0.000E+00  1.01861E+03  2.981E+00  4.323E+01  4.405E-01  1.310E-01
   1   13    4     8     3    1.7442E+02 -2.4759E+00   1.7690E+02  0.000E+00  0.000E+00  0.000E+00  1.01236E+03  2.989E+00  4.334E+01  4.416E+00 -1.869E-01
   1   13    3     8     4    1.7690E+02 -3.6432E+00   1.8054E+02  0.000E+00  0.000E+00  0.000E+00  1.00613E+03  3.008E+00  4.362E+01  4.445E+00 -2.732E-01
   1   13    2     8     5    1.8054E+02 -2.5430E+00   1.8308E+02  0.000E+00  0.000E+00  0.000E+00  9.99903E+02  3.028E+00  4.390E+01  4.473E+00 -1.895E-01
   1   13    1     8     6    1.8308E+02 -1.9508E+00   1.8503E+02  0.000E+00  0.000E+00  0.000E+00  9.94917E+02  3.041E+00  4.410E+01  2.696E+00 -2.412E-01
   1    8    6     9     1    1.0926E-03  0.0000E+00   1.0926E-03  0.000E+00  0.000E+00  0.000E+00  1.07876E+03  9.514E-03  4.000E+00  0.000E+00  1.003E+00
   1    8    5     9     2    1.0926E-03  0.0000E+00   1.0926E-03  0.000E+00  0.000E+00  0.000E+00  1.07826E+03  9.514E-03  4.000E+00  0.000E+00  1.003E+00





UNSATURATED ZONE PACKAGE VOLUMETRIC BUDGET FOR  TIME STEP    30 STRESS PERIOD   35
  ------------------------------------------------------------------------------



     CUMULATIVE VOLUMES      L**3       RATES FOR THIS TIME STEP      L**3/T
     ------------------                 ------------------------

           IN:                                      IN:
           ---                                      ---
        INFILTRATION =  4265000096.8749          INFILTRATION =           0.8486

          OUT:                                     OUT:
          ----                                     ----
              UZF ET =  1285534717.7785                UZF ET =           1.5675
        UZF RECHARGE =  2716293710.6995          UZF RECHARGE =       0.0000E+00

            IN - OUT =   263171668.3970              IN - OUT =          -0.7189

          STORAGE:                                 STORAGE:
          --------                                 --------
      STORAGE CHANGE =   263164533.8001        STORAGE CHANGE =          -0.7189

 PERCENT DISCREPANCY IS DIFFERENCE BETWEEN IN-OUT MINUS CHANGE IN STORAGE
 DIVIDED BY THE AVERAGE OF IN AND OUT TIMES 100

 PERCENT DISCREPANCY =           0.00     PERCENT DISCREPANCY =           0.00






1
  VOLUMETRIC BUDGET FOR AGRICULTURAL FIELDS AT  END OF TIME STEP   30, STRESS PERIOD  35
  ------------------------------------------------------------------------------

     CUMULATIVE VOLUMES      L**3       RATES FOR THIS TIME STEP      L**3/T
     ------------------                 ------------------------

           IN:                                      IN:
           ---                                      ---
           AG WELLS      =  2651762432.0000             AG WELLS      =       1.4544E-05
      DIVERSION SEGMENTS =  1537368064.0000        DIVERSION SEGMENTS =       1.0926E-03
           GW IRRIGATION =           0.0000             GW IRRIGATION =           0.0000
           SW IRRIGATION =           0.0000             SW IRRIGATION =           0.0000
        SYSTEM LOSSES GW =           0.0000          SYSTEM LOSSES GW =           0.0000
        SYSTEM LOSSES SW =           0.0000          SYSTEM LOSSES SW =           0.0000

                TOTAL IN =  4189130496.0000                  TOTAL IN =       1.1071E-03

          OUT:                                     OUT:
          ----                                     ----
           AG WELLS      =           0.0000             AG WELLS      =           0.0000
      DIVERSION SEGMENTS =           0.0000        DIVERSION SEGMENTS =           0.0000
           GW IRRIGATION =  2651762432.0000             GW IRRIGATION =       1.4544E-05
           SW IRRIGATION =  1537396352.0000             SW IRRIGATION =       1.0926E-03
        SYSTEM LOSSES GW =           0.0000          SYSTEM LOSSES GW =           0.0000
        SYSTEM LOSSES SW =           0.0000          SYSTEM LOSSES SW =           0.0000

               TOTAL OUT =  4189158912.0000                 TOTAL OUT =       1.1072E-03

                IN - OUT =      -28416.0000                  IN - OUT =      -2.1770E-08

     PERCENT DISCREPANCY =          -0.00         PERCENT DISCREPANCY =          -0.00



1
  VOLUMETRIC BUDGET FOR ENTIRE MODEL AT END OF TIME STEP   30, STRESS PERIOD  35
  ------------------------------------------------------------------------------

     CUMULATIVE VOLUMES      L**3       RATES FOR THIS TIME STEP      L**3/T
     ------------------                 ------------------------

           IN:                                      IN:
           ---                                      ---
             STORAGE     =  2583776256.0000               STORAGE     =          14.9553
       CONSTANT HEAD     =           0.0000         CONSTANT HEAD     =           0.0000
     HEAD DEP BOUNDS     =    25612414.0000       HEAD DEP BOUNDS     =           0.2866
      STREAM LEAKAGE     =  1073617472.0000        STREAM LEAKAGE     =          11.8279
        UZF RECHARGE     =  2716292608.0000          UZF RECHARGE     =           0.0000
               GW ET     =           0.0000                 GW ET     =           0.0000
     SURFACE LEAKAGE     =           0.0000       SURFACE LEAKAGE     =           0.0000
           AG WELLS      =           0.0000             AG WELLS      =           0.0000

                TOTAL IN =  6399298560.0000                  TOTAL IN =          27.0698

          OUT:                                     OUT:
          ----                                     ----
             STORAGE     =  2759330816.0000               STORAGE     =          16.1667
       CONSTANT HEAD     =           0.0000         CONSTANT HEAD     =           0.0000
     HEAD DEP BOUNDS     =    25917538.0000       HEAD DEP BOUNDS     =           0.2903
      STREAM LEAKAGE     =   962173248.0000        STREAM LEAKAGE     =          10.6128
        UZF RECHARGE     =           0.0000          UZF RECHARGE     =           0.0000
               GW ET     =      151061.6094                 GW ET     =           0.0000
     SURFACE LEAKAGE     =           0.0000       SURFACE LEAKAGE     =           0.0000
           AG WELLS      =  2651762432.0000             AG WELLS      =       1.4544E-05

               TOTAL OUT =  6399334912.0000                 TOTAL OUT =          27.0698

                IN - OUT =      -36352.0000                  IN - OUT =      -5.7220E-06

     PERCENT DISCREPANCY =          -0.00         PERCENT DISCREPANCY =          -0.00






         TIME SUMMARY AT END OF TIME STEP   30 IN STRESS PERIOD   35
                    SECONDS     MINUTES      HOURS       DAYS        YEARS
                    -----------------------------------------------------------
   TIME STEP LENGTH  87667.      1461.1      24.352      1.0147     2.77799E-03
 STRESS PERIOD TIME 2.63000E+06  43833.      730.56      30.440     8.33397E-02
         TOTAL TIME 8.95061E+07 1.49177E+06  24863.      1036.0      2.8363    
1
1
                            STRESS PERIOD NO.   36, LENGTH =   2630000.    
                            -----------------------------------------------

                              NUMBER OF TIME STEPS =    30

                               MULTIPLIER FOR DELT =     1.000

                            INITIAL TIME STEP SIZE =   87666.66    

 REUSING NON-PARAMETER GHB CELLS FROM LAST STRESS PERIOD

      2 GHB CELLS

 REUSING STREAM SEGMENT DATA FROM LAST STRESS PERIOD



            AREAL INFILTRATION RATE
 READING ON UNIT   19 WITH FORMAT: (FREE)              

            1           2           3           4           5           6           7           8           9          10
 ........................................................................................................................
   1   1.0000E-10  2.0000E-10   0.000       0.000       0.000       0.000       0.000       0.000       0.000       0.000    
   2   2.0000E-10  1.0000E-10  2.0000E-10   0.000       0.000      8.0000E-10  8.0000E-10  5.0000E-10   0.000       0.000    
   3    0.000      5.0000E-10  1.0000E-10  1.0000E-10  8.0000E-10  8.0000E-10  5.0000E-10  5.0000E-10   0.000       0.000    
   4   8.0000E-10  5.0000E-10  1.0000E-10  1.0000E-10  1.0000E-10  1.0000E-10  1.0000E-10  1.0000E-10  2.0000E-10   0.000    
   5   8.0000E-10  5.0000E-10  1.0000E-10  1.0000E-10  1.0000E-10  1.0000E-10  1.0000E-10  1.0000E-10  1.0000E-10  1.0000E-10
   6   8.0000E-10  5.0000E-10  5.0000E-10  2.0000E-10  2.0000E-10  1.0000E-10  1.0000E-10  1.0000E-10  1.0000E-10  5.0000E-10
   7   8.0000E-10  5.0000E-10  5.0000E-10  2.0000E-10  2.0000E-10  1.0000E-10  1.0000E-10  2.0000E-10  2.0000E-10   0.000    
   8    0.000      5.0000E-10  5.0000E-10  2.0000E-10  2.0000E-10  1.0000E-10  1.0000E-10  2.0000E-10  5.0000E-10   0.000    
   9    0.000      5.0000E-10  5.0000E-10  2.0000E-10  2.0000E-10  1.0000E-10  1.0000E-10  2.0000E-10  5.0000E-10   0.000    
  10    0.000      5.0000E-10  5.0000E-10  2.0000E-10  2.0000E-10  1.0000E-10  1.0000E-10  2.0000E-10  5.0000E-10  8.0000E-10
  11    0.000      1.0000E-10  1.0000E-10  1.0000E-10  1.0000E-10  1.0000E-10  1.0000E-10  2.0000E-10  5.0000E-10   0.000    
  12   1.0000E-10  1.0000E-10  1.0000E-10  1.0000E-10  1.0000E-10  1.0000E-10  1.0000E-10  1.0000E-10  2.0000E-10   0.000    
  13   1.0000E-10  1.0000E-10  2.0000E-10  2.0000E-10  2.0000E-10  2.0000E-10  2.0000E-10  1.0000E-10  1.0000E-10   0.000    
  14    0.000      2.0000E-10  5.0000E-10  5.0000E-10  5.0000E-10  5.0000E-10  5.0000E-10  2.0000E-10  1.0000E-10   0.000    
  15    0.000       0.000      8.0000E-10  8.0000E-10  8.0000E-10  8.0000E-10   0.000       0.000       0.000       0.000    

                  ET RATE =  5.000000E-10

 USING ET EXTINCTION DEPTH FROM PREVIOUS STRESS PERIOD. CURRENT PERIOD IS:      36

 USING EXTINCTION WATER CONTENT FROM PREVIOUS STRESS PERIOD. CURRENT PERIOD IS:      36

 USING AIR ENTRY PRESSURE FROM PREVIOUS STRESS PERIOD. CURRENT PERIOD IS:      36

 USING ROOT PRESSURE HEAD FROM PREVIOUS STRESS PERIOD. CURRENT PERIOD IS:      36

 USING ROOT ACTIVITY FROM PREVIOUS STRESS PERIOD. CURRENT PERIOD IS:      36

 PROCESSING AG STRESS PERIOD DATA

 READING AG STRESS PERIOD DATA

 READING IRRIGATION SEGMENT

 READING IRRIGATION WELL

 READING SUPPLEMENTAL WELL

 END PROCESSING AG STRESS PERIOD DATA OPTIONS
 
 SOLVING FOR HEAD 
                                                   Max.-Head-Change                         Max.-Flux-Residual
  Residual-Control   Outer-Iter.   Inner-Iter.     Column Row Layer    Maximum-Head-Change  Column Row Layer    Maximum-Flux-Residual          L2-NORM 
          0                 1           2             4    6     1      -0.5881696384E-01       4    6    1        -0.3142046947E+01      0.6701195888E+01
          0                 2           2             4    6     1       0.5721084423E-02       4    6    1         0.3141908830E+00      0.6700998881E+00
          0                 3           2             4    6     1      -0.3895866182E-03       4    6    1        -0.2199350200E-01      0.4690709081E-01
          0                 4           1             4    6     1       0.1550201681E-04       4    6    1         0.8995348885E-03      0.1918495496E-02

    ------------------------------------------------
       NWT REQUIRED            4 OUTER ITERATIONS 
       AND A TOTAL OF          7 INNER ITERATIONS.
    ------------------------------------------------

 NO OUTPUT CONTROL FOR STRESS PERIOD   36   TIME STEP    1
 
 SOLVING FOR HEAD 
                                                   Max.-Head-Change                         Max.-Flux-Residual
  Residual-Control   Outer-Iter.   Inner-Iter.     Column Row Layer    Maximum-Head-Change  Column Row Layer    Maximum-Flux-Residual          L2-NORM 
          0                 1           2             4    6     1      -0.5723163959E-01       4    6    1        -0.3056200140E+01      0.6546496804E+01
          0                 2           2             4    6     1       0.5566888736E-02       4    6    1         0.3056071029E+00      0.6546185928E+00
          0                 3           2             4    6     1      -0.3790863347E-03       4    6    1        -0.2139262860E-01      0.4582221135E-01
          0                 4           1             4    6     1       0.1508420125E-04       4    6    1         0.8749591655E-03      0.1874014370E-02

    ------------------------------------------------
       NWT REQUIRED            4 OUTER ITERATIONS 
       AND A TOTAL OF          7 INNER ITERATIONS.
    ------------------------------------------------

 NO OUTPUT CONTROL FOR STRESS PERIOD   36   TIME STEP    2
 
 SOLVING FOR HEAD 
                                                   Max.-Head-Change                         Max.-Flux-Residual
  Residual-Control   Outer-Iter.   Inner-Iter.     Column Row Layer    Maximum-Head-Change  Column Row Layer    Maximum-Flux-Residual          L2-NORM 
          0                 1           2             4    7     1      -0.5590980614E-01       4    6    1        -0.2973820681E+01      0.6402314345E+01
          0                 2           2             4    7     1       0.5438401955E-02       4    6    1         0.2973699890E+00      0.6402007817E+00
          0                 3           2             4    7     1      -0.3703359660E-03       4    6    1        -0.2081602252E-01      0.4481292509E-01
          0                 4           1             4    7     1       0.1473600957E-04       4    6    1         0.8513759708E-03      0.1832781674E-02

    ------------------------------------------------
       NWT REQUIRED            4 OUTER ITERATIONS 
       AND A TOTAL OF          7 INNER ITERATIONS.
    ------------------------------------------------

 NO OUTPUT CONTROL FOR STRESS PERIOD   36   TIME STEP    3
 
 SOLVING FOR HEAD 
                                                   Max.-Head-Change                         Max.-Flux-Residual
  Residual-Control   Outer-Iter.   Inner-Iter.     Column Row Layer    Maximum-Head-Change  Column Row Layer    Maximum-Flux-Residual          L2-NORM 
          0                 1           2             4    7     1      -0.5515671886E-01       4    7    1        -0.2905139447E+01      0.6263618351E+01
          0                 2           2             4    7     1       0.5365148056E-02       4    7    1         0.2905076145E+00      0.6263346188E+00
          0                 3           2             4    7     1      -0.3653476373E-03       4    7    1        -0.2033560168E-01      0.4384244342E-01
          0                 4           1             4    7     1       0.1453751945E-04       4    7    1         0.8317269865E-03      0.1793086609E-02

    ------------------------------------------------
       NWT REQUIRED            4 OUTER ITERATIONS 
       AND A TOTAL OF          7 INNER ITERATIONS.
    ------------------------------------------------

 NO OUTPUT CONTROL FOR STRESS PERIOD   36   TIME STEP    4
 
 SOLVING FOR HEAD 
                                                   Max.-Head-Change                         Max.-Flux-Residual
  Residual-Control   Outer-Iter.   Inner-Iter.     Column Row Layer    Maximum-Head-Change  Column Row Layer    Maximum-Flux-Residual          L2-NORM 
          0                 1           2             4    7     1      -0.5439813846E-01       4    7    1        -0.2865986721E+01      0.6130056658E+01
          0                 2           2             4    7     1       0.5291360054E-02       4    7    1         0.2865924053E+00      0.6129806412E+00
          0                 3           2             4    7     1      -0.3603229366E-03       4    7    1        -0.2006153633E-01      0.4290783055E-01
          0                 4           1             4    7     1       0.1433758196E-04       4    7    1         0.8205176939E-03      0.1754874867E-02

    ------------------------------------------------
       NWT REQUIRED            4 OUTER ITERATIONS 
       AND A TOTAL OF          7 INNER ITERATIONS.
    ------------------------------------------------

 NO OUTPUT CONTROL FOR STRESS PERIOD   36   TIME STEP    5
 
 SOLVING FOR HEAD 
                                                   Max.-Head-Change                         Max.-Flux-Residual
  Residual-Control   Outer-Iter.   Inner-Iter.     Column Row Layer    Maximum-Head-Change  Column Row Layer    Maximum-Flux-Residual          L2-NORM 
          0                 1           2             4    7     1      -0.5363662308E-01       4    7    1        -0.2826594154E+01      0.6001353969E+01
          0                 2           2             4    7     1       0.5217286748E-02       4    7    1         0.2826532264E+00      0.6001127360E+00
          0                 3           2             4    7     1      -0.3552788056E-03       4    7    1        -0.1978579295E-01      0.4200722387E-01
          0                 4           1             4    7     1       0.1413687126E-04       4    7    1         0.8092397761E-03      0.1718071170E-02

    ------------------------------------------------
       NWT REQUIRED            4 OUTER ITERATIONS 
       AND A TOTAL OF          7 INNER ITERATIONS.
    ------------------------------------------------

 NO OUTPUT CONTROL FOR STRESS PERIOD   36   TIME STEP    6
 
 SOLVING FOR HEAD 
                                                   Max.-Head-Change                         Max.-Flux-Residual
  Residual-Control   Outer-Iter.   Inner-Iter.     Column Row Layer    Maximum-Head-Change  Column Row Layer    Maximum-Flux-Residual          L2-NORM 
          0                 1           2             4    7     1      -0.5287287794E-01       4    7    1        -0.2787004476E+01      0.5877225043E+01
          0                 2           2             4    7     1       0.5142996710E-02       4    7    1         0.2786943488E+00      0.5877087310E+00
          0                 3           2             4    7     1      -0.3502199151E-03       4    7    1        -0.1950867058E-01      0.4113906195E-01
          0                 4           1             4    7     1       0.1393557364E-04       4    7    1         0.7979054824E-03      0.1682557317E-02

    ------------------------------------------------
       NWT REQUIRED            4 OUTER ITERATIONS 
       AND A TOTAL OF          7 INNER ITERATIONS.
    ------------------------------------------------

 NO OUTPUT CONTROL FOR STRESS PERIOD   36   TIME STEP    7
 
 SOLVING FOR HEAD 
                                                   Max.-Head-Change                         Max.-Flux-Residual
  Residual-Control   Outer-Iter.   Inner-Iter.     Column Row Layer    Maximum-Head-Change  Column Row Layer    Maximum-Flux-Residual          L2-NORM 
          0                 1           2             4    7     1      -0.5210888244E-01       4    7    1        -0.2747329173E+01      0.5757418261E+01
          0                 2           2             4    7     1       0.5068682423E-02       4    7    1         0.2747269191E+00      0.5757293841E+00
          0                 3           2             4    7     1      -0.3451593710E-03       4    7    1        -0.1923094941E-01      0.4030056597E-01
          0                 4           1             4    7     1       0.1373420972E-04       4    7    1         0.7865466662E-03      0.1648247931E-02

    ------------------------------------------------
       NWT REQUIRED            4 OUTER ITERATIONS 
       AND A TOTAL OF          7 INNER ITERATIONS.
    ------------------------------------------------

 NO OUTPUT CONTROL FOR STRESS PERIOD   36   TIME STEP    8
 
 SOLVING FOR HEAD 
                                                   Max.-Head-Change                         Max.-Flux-Residual
  Residual-Control   Outer-Iter.   Inner-Iter.     Column Row Layer    Maximum-Head-Change  Column Row Layer    Maximum-Flux-Residual          L2-NORM 
          0                 1           2             4    7     1      -0.5134562783E-01       4    7    1        -0.2707625929E+01      0.5641705074E+01
          0                 2           2             4    7     1       0.4994440384E-02       4    7    1         0.2707567040E+00      0.5641533782E+00
          0                 3           2             4    7     1      -0.3401037459E-03       4    7    1        -0.1895303319E-01      0.3949033528E-01
          0                 4           1             4    7     1       0.1353304196E-04       4    7    1         0.7751798901E-03      0.1615133814E-02

    ------------------------------------------------
       NWT REQUIRED            4 OUTER ITERATIONS 
       AND A TOTAL OF          7 INNER ITERATIONS.
    ------------------------------------------------

 NO OUTPUT CONTROL FOR STRESS PERIOD   36   TIME STEP    9
 
 SOLVING FOR HEAD 
                                                   Max.-Head-Change                         Max.-Flux-Residual
  Residual-Control   Outer-Iter.   Inner-Iter.     Column Row Layer    Maximum-Head-Change  Column Row Layer    Maximum-Flux-Residual          L2-NORM 
          0                 1           2             4    7     1      -0.5058426632E-01       4    7    1        -0.2667961119E+01      0.5529867161E+01
          0                 2           2             4    7     1       0.4920382548E-02       4    7    1         0.2667903395E+00      0.5529710565E+00
          0                 3           2             4    7     1      -0.3350606633E-03       4    7    1        -0.1867538646E-01      0.3870764536E-01
          0                 4           1             4    7     1       0.1333237271E-04       4    7    1         0.7638241066E-03      0.1583118940E-02

    ------------------------------------------------
       NWT REQUIRED            4 OUTER ITERATIONS 
       AND A TOTAL OF          7 INNER ITERATIONS.
    ------------------------------------------------

 NO OUTPUT CONTROL FOR STRESS PERIOD   36   TIME STEP   10
 
 SOLVING FOR HEAD 
                                                   Max.-Head-Change                         Max.-Flux-Residual
  Residual-Control   Outer-Iter.   Inner-Iter.     Column Row Layer    Maximum-Head-Change  Column Row Layer    Maximum-Flux-Residual          L2-NORM 
          0                 1           2             4    7     1      -0.4982610487E-01       4    7    1        -0.2628409467E+01      0.5421705992E+01
          0                 2           2             4    7     1       0.4846636061E-02       4    7    1         0.2628352964E+00      0.5421562425E+00
          0                 3           2             4    7     1      -0.3300387814E-03       4    7    1        -0.1839853214E-01      0.3795065075E-01
          0                 4           1             4    7     1       0.1313254781E-04       4    7    1         0.7525007652E-03      0.1552165133E-02

    ------------------------------------------------
       NWT REQUIRED            4 OUTER ITERATIONS 
       AND A TOTAL OF          7 INNER ITERATIONS.
    ------------------------------------------------

 NO OUTPUT CONTROL FOR STRESS PERIOD   36   TIME STEP   11
 
 SOLVING FOR HEAD 
                                                   Max.-Head-Change                         Max.-Flux-Residual
  Residual-Control   Outer-Iter.   Inner-Iter.     Column Row Layer    Maximum-Head-Change  Column Row Layer    Maximum-Flux-Residual          L2-NORM 
          0                 1           2             4    7     1      -0.4907179208E-01       4    7    1        -0.2589008782E+01      0.5317048587E+01
          0                 2           2             4    7     1       0.4773264000E-02       4    7    1         0.2588953547E+00      0.5316916655E+00
          0                 3           2             4    7     1      -0.3250423966E-03       4    7    1        -0.1812273491E-01      0.3721819352E-01
          0                 4           1             4    7     1       0.1293373649E-04       4    7    1         0.7412206348E-03      0.1522216139E-02

    ------------------------------------------------
       NWT REQUIRED            4 OUTER ITERATIONS 
       AND A TOTAL OF          7 INNER ITERATIONS.
    ------------------------------------------------

 NO OUTPUT CONTROL FOR STRESS PERIOD   36   TIME STEP   12
 
 SOLVING FOR HEAD 
                                                   Max.-Head-Change                         Max.-Flux-Residual
  Residual-Control   Outer-Iter.   Inner-Iter.     Column Row Layer    Maximum-Head-Change  Column Row Layer    Maximum-Flux-Residual          L2-NORM 
          0                 1           2             4    7     1      -0.4832216326E-01       4    7    1        -0.2549807672E+01      0.5215709198E+01
          0                 2           2             4    7     1       0.4700347601E-02       4    7    1         0.2549753739E+00      0.5215587801E+00
          0                 3           2             4    7     1      -0.3200770404E-03       4    7    1        -0.1784833490E-01      0.3650895421E-01
          0                 4           1             4    7     1       0.1273616118E-04       4    7    1         0.7299976985E-03      0.1493192304E-02

    ------------------------------------------------
       NWT REQUIRED            4 OUTER ITERATIONS 
       AND A TOTAL OF          7 INNER ITERATIONS.
    ------------------------------------------------

 NO OUTPUT CONTROL FOR STRESS PERIOD   36   TIME STEP   13
 
 SOLVING FOR HEAD 
                                                   Max.-Head-Change                         Max.-Flux-Residual
  Residual-Control   Outer-Iter.   Inner-Iter.     Column Row Layer    Maximum-Head-Change  Column Row Layer    Maximum-Flux-Residual          L2-NORM 
          0                 1           2             4    7     1      -0.4757823217E-01       4    7    1        -0.2510864418E+01      0.5117524280E+01
          0                 2           2             4    7     1       0.4627985462E-02       4    7    1         0.2510811812E+00      0.5117412231E+00
          0                 3           2             4    7     1      -0.3151494269E-03       4    7    1        -0.1757574006E-01      0.3582176061E-01
          0                 4           1             4    7     1       0.1254008690E-04       4    7    1         0.7188485383E-03      0.1465107910E-02

    ------------------------------------------------
       NWT REQUIRED            4 OUTER ITERATIONS 
       AND A TOTAL OF          7 INNER ITERATIONS.
    ------------------------------------------------

 NO OUTPUT CONTROL FOR STRESS PERIOD   36   TIME STEP   14
 
 SOLVING FOR HEAD 
                                                   Max.-Head-Change                         Max.-Flux-Residual
  Residual-Control   Outer-Iter.   Inner-Iter.     Column Row Layer    Maximum-Head-Change  Column Row Layer    Maximum-Flux-Residual          L2-NORM 
          0                 1           2             4    7     1      -0.4684065534E-01       4    7    1        -0.2472216610E+01      0.5022360071E+01
          0                 2           2             4    7     1       0.4556241435E-02       4    7    1         0.2472165348E+00      0.5022256497E+00
          0                 3           2             4    7     1      -0.3102639043E-03       4    7    1        -0.1730521343E-01      0.3515568674E-01
          0                 4           1             4    7     1       0.1234568727E-04       4    7    1         0.7077839921E-03      0.1437854255E-02

    ------------------------------------------------
       NWT REQUIRED            4 OUTER ITERATIONS 
       AND A TOTAL OF          7 INNER ITERATIONS.
    ------------------------------------------------

 NO OUTPUT CONTROL FOR STRESS PERIOD   36   TIME STEP   15
 
 SOLVING FOR HEAD 
                                                   Max.-Head-Change                         Max.-Flux-Residual
  Residual-Control   Outer-Iter.   Inner-Iter.     Column Row Layer    Maximum-Head-Change  Column Row Layer    Maximum-Flux-Residual          L2-NORM 
          0                 1           2             4    7     1      -0.4610973126E-01       4    7    1        -0.2433883319E+01      0.4930051842E+01
          0                 2           2             4    7     1       0.4485144545E-02       4    7    1         0.2433833412E+00      0.4929955705E+00
          0                 3           2             4    7     1      -0.3054224491E-03       4    7    1        -0.1703688846E-01      0.3450961562E-01
          0                 4           1             4    7     1       0.1215304150E-04       4    7    1         0.6968094988E-03      0.1411438991E-02

    ------------------------------------------------
       NWT REQUIRED            4 OUTER ITERATIONS 
       AND A TOTAL OF          7 INNER ITERATIONS.
    ------------------------------------------------

 NO OUTPUT CONTROL FOR STRESS PERIOD   36   TIME STEP   16
 
 SOLVING FOR HEAD 
                                                   Max.-Head-Change                         Max.-Flux-Residual
  Residual-Control   Outer-Iter.   Inner-Iter.     Column Row Layer    Maximum-Head-Change  Column Row Layer    Maximum-Flux-Residual          L2-NORM 
          0                 1           2             4    7     1      -0.4538597164E-01       4    7    1        -0.2395894995E+01      0.4840466659E+01
          0                 2           2             4    7     1       0.4414744560E-02       4    7    1         0.2395846445E+00      0.4840377490E+00
          0                 3           2             4    7     1      -0.3006284505E-03       4    7    1        -0.1677097830E-01      0.3388258025E-01
          0                 4           1             4    7     1       0.1196228358E-04       4    7    1         0.6859337514E-03      0.1385787326E-02

    ------------------------------------------------
       NWT REQUIRED            4 OUTER ITERATIONS 
       AND A TOTAL OF          7 INNER ITERATIONS.
    ------------------------------------------------

 NO OUTPUT CONTROL FOR STRESS PERIOD   36   TIME STEP   17
 
 SOLVING FOR HEAD 
                                                   Max.-Head-Change                         Max.-Flux-Residual
  Residual-Control   Outer-Iter.   Inner-Iter.     Column Row Layer    Maximum-Head-Change  Column Row Layer    Maximum-Flux-Residual          L2-NORM 
          0                 1           2             4    7     1      -0.4467011179E-01       4    7    1        -0.2358293133E+01      0.4753507382E+01
          0                 2           2             4    7     1       0.4345112996E-02       4    7    1         0.2358245938E+00      0.4753424308E+00
          0                 3           2             4    7     1      -0.2958867784E-03       4    7    1        -0.1650777334E-01      0.3327393889E-01
          0                 4           1             4    7     1       0.1177360786E-04       4    7    1         0.6751686469E-03      0.1360896364E-02

    ------------------------------------------------
       NWT REQUIRED            4 OUTER ITERATIONS 
       AND A TOTAL OF          7 INNER ITERATIONS.
    ------------------------------------------------

 NO OUTPUT CONTROL FOR STRESS PERIOD   36   TIME STEP   18
 
 SOLVING FOR HEAD 
                                                   Max.-Head-Change                         Max.-Flux-Residual
  Residual-Control   Outer-Iter.   Inner-Iter.     Column Row Layer    Maximum-Head-Change  Column Row Layer    Maximum-Flux-Residual          L2-NORM 
          0                 1           2             4    7     1      -0.4396253928E-01       4    7    1        -0.2321100891E+01      0.4669046870E+01
          0                 2           2             4    7     1       0.4276287546E-02       4    7    1         0.2321055044E+00      0.4668969410E+00
          0                 3           2             4    7     1      -0.2912000006E-03       4    7    1        -0.1624743570E-01      0.3268275341E-01
          0                 4           1             4    7     1       0.1158711681E-04       4    7    1         0.6645208337E-03      0.1336715148E-02

    ------------------------------------------------
       NWT REQUIRED            4 OUTER ITERATIONS 
       AND A TOTAL OF          7 INNER ITERATIONS.
    ------------------------------------------------

 NO OUTPUT CONTROL FOR STRESS PERIOD   36   TIME STEP   19
 
 SOLVING FOR HEAD 
                                                   Max.-Head-Change                         Max.-Flux-Residual
  Residual-Control   Outer-Iter.   Inner-Iter.     Column Row Layer    Maximum-Head-Change  Column Row Layer    Maximum-Flux-Residual          L2-NORM 
          0                 1           2             4    7     1      -0.4326330511E-01       4    7    1        -0.2284323402E+01      0.4586967527E+01
          0                 2           2             4    7     1       0.4208273168E-02       4    7    1         0.2284278891E+00      0.4586895149E+00
          0                 3           2             4    7     1      -0.2865684540E-03       4    7    1        -0.1599000126E-01      0.3210825856E-01
          0                 4           1             4    7     1       0.1140282354E-04       4    7    1         0.6539917761E-03      0.1313227201E-02

    ------------------------------------------------
       NWT REQUIRED            4 OUTER ITERATIONS 
       AND A TOTAL OF          7 INNER ITERATIONS.
    ------------------------------------------------

 NO OUTPUT CONTROL FOR STRESS PERIOD   36   TIME STEP   20
 
 SOLVING FOR HEAD 
                                                   Max.-Head-Change                         Max.-Flux-Residual
  Residual-Control   Outer-Iter.   Inner-Iter.     Column Row Layer    Maximum-Head-Change  Column Row Layer    Maximum-Flux-Residual          L2-NORM 
          0                 1           2             4    7     1      -0.4257298042E-01       4    7    1        -0.2247993236E+01      0.4507169593E+01
          0                 2           2             4    7     1       0.4141125412E-02       4    7    1         0.2247950046E+00      0.4507101842E+00
          0                 3           2             4    7     1      -0.2819959214E-03       4    7    1        -0.1573569801E-01      0.3154971009E-01
          0                 4           1             4    7     1       0.1122087864E-04       4    7    1         0.6435907678E-03      0.1290399124E-02

    ------------------------------------------------
       NWT REQUIRED            4 OUTER ITERATIONS 
       AND A TOTAL OF          7 INNER ITERATIONS.
    ------------------------------------------------

 NO OUTPUT CONTROL FOR STRESS PERIOD   36   TIME STEP   21
 
 SOLVING FOR HEAD 
                                                   Max.-Head-Change                         Max.-Flux-Residual
  Residual-Control   Outer-Iter.   Inner-Iter.     Column Row Layer    Maximum-Head-Change  Column Row Layer    Maximum-Flux-Residual          L2-NORM 
          0                 1           2             4    7     1      -0.4189180413E-01       4    7    1        -0.2212125042E+01      0.4429575288E+01
          0                 2           2             4    7     1       0.4074867513E-02       4    7    1         0.2212083156E+00      0.4429511743E+00
          0                 3           2             4    7     1      -0.2774839840E-03       4    7    1        -0.1548462841E-01      0.3100660022E-01
          0                 4           1             4    7     1       0.1104134406E-04       4    7    1         0.6333219940E-03      0.1268169561E-02

    ------------------------------------------------
       NWT REQUIRED            4 OUTER ITERATIONS 
       AND A TOTAL OF          7 INNER ITERATIONS.
    ------------------------------------------------

 NO OUTPUT CONTROL FOR STRESS PERIOD   36   TIME STEP   22
 
 SOLVING FOR HEAD 
                                                   Max.-Head-Change                         Max.-Flux-Residual
  Residual-Control   Outer-Iter.   Inner-Iter.     Column Row Layer    Maximum-Head-Change  Column Row Layer    Maximum-Flux-Residual          L2-NORM 
          0                 1           2             4    7     1      -0.4121996917E-01       4    7    1        -0.2176731208E+01      0.4354067782E+01
          0                 2           2             4    7     1       0.4009518235E-02       4    7    1         0.2176690604E+00      0.4354430970E+00
          0                 3           2             4    7     1      -0.2730339216E-03       4    7    1        -0.1523687923E-01      0.3048104121E-01
          0                 4           1             4    7     1       0.1086427228E-04       4    7    1         0.6231890452E-03      0.1246667801E-02

    ------------------------------------------------
       NWT REQUIRED            4 OUTER ITERATIONS 
       AND A TOTAL OF          7 INNER ITERATIONS.
    ------------------------------------------------

 NO OUTPUT CONTROL FOR STRESS PERIOD   36   TIME STEP   23
 
 SOLVING FOR HEAD 
                                                   Max.-Head-Change                         Max.-Flux-Residual
  Residual-Control   Outer-Iter.   Inner-Iter.     Column Row Layer    Maximum-Head-Change  Column Row Layer    Maximum-Flux-Residual          L2-NORM 
          0                 1           2             4    7     1      -0.4055764484E-01       4    7    1        -0.2141821737E+01      0.4280549594E+01
          0                 2           2             4    7     1       0.3945094047E-02       4    7    1         0.2141782393E+00      0.4280493502E+00
          0                 3           2             4    7     1      -0.2686468545E-03       4    7    1        -0.1499252045E-01      0.2996348605E-01
          0                 4           1             4    7     1       0.1068970684E-04       4    7    1         0.6131947623E-03      0.1225509524E-02

    ------------------------------------------------
       NWT REQUIRED            4 OUTER ITERATIONS 
       AND A TOTAL OF          7 INNER ITERATIONS.
    ------------------------------------------------

 NO OUTPUT CONTROL FOR STRESS PERIOD   36   TIME STEP   24
 
 SOLVING FOR HEAD 
                                                   Max.-Head-Change                         Max.-Flux-Residual
  Residual-Control   Outer-Iter.   Inner-Iter.     Column Row Layer    Maximum-Head-Change  Column Row Layer    Maximum-Flux-Residual          L2-NORM 
          0                 1           2             4    7     1      -0.3990495137E-01       4    7    1        -0.2107405408E+01      0.4208947802E+01
          0                 2           2             4    7     1       0.3881606638E-02       4    7    1         0.2107367299E+00      0.4208894888E+00
          0                 3           2             4    7     1      -0.2643235791E-03       4    7    1        -0.1475161353E-01      0.2946230628E-01
          0                 4           1             4    7     1       0.1051767972E-04       4    7    1         0.6033416637E-03      0.1205025006E-02

    ------------------------------------------------
       NWT REQUIRED            4 OUTER ITERATIONS 
       AND A TOTAL OF          7 INNER ITERATIONS.
    ------------------------------------------------

 NO OUTPUT CONTROL FOR STRESS PERIOD   36   TIME STEP   25
 
 SOLVING FOR HEAD 
                                                   Max.-Head-Change                         Max.-Flux-Residual
  Residual-Control   Outer-Iter.   Inner-Iter.     Column Row Layer    Maximum-Head-Change  Column Row Layer    Maximum-Flux-Residual          L2-NORM 
          0                 1           2             4    7     1      -0.3926198604E-01       4    7    1        -0.2073488452E+01      0.4139214718E+01
          0                 2           2             4    7     1       0.3819065469E-02       4    7    1         0.2073451553E+00      0.4139164713E+00
          0                 3           2             4    7     1      -0.2600647396E-03       4    7    1        -0.1451420205E-01      0.2897419030E-01
          0                 4           1             4    7     1       0.1034821673E-04       4    7    1         0.5936315367E-03      0.1185049999E-02

    ------------------------------------------------
       NWT REQUIRED            4 OUTER ITERATIONS 
       AND A TOTAL OF          7 INNER ITERATIONS.
    ------------------------------------------------

 NO OUTPUT CONTROL FOR STRESS PERIOD   36   TIME STEP   26
 
 SOLVING FOR HEAD 
                                                   Max.-Head-Change                         Max.-Flux-Residual
  Residual-Control   Outer-Iter.   Inner-Iter.     Column Row Layer    Maximum-Head-Change  Column Row Layer    Maximum-Flux-Residual          L2-NORM 
          0                 1           2             4    7     1      -0.3862909706E-01       4    7    1        -0.2040090868E+01      0.4071286568E+01
          0                 2           2             4    7     1       0.3757504411E-02       4    7    1         0.2040055150E+00      0.4071239321E+00
          0                 3           2             4    7     1      -0.2558726423E-03       4    7    1        -0.1428042603E-01      0.2849871162E-01
          0                 4           1             4    7     1       0.1018140904E-04       4    7    1         0.5840700692E-03      0.1165599796E-02

    ------------------------------------------------
       NWT REQUIRED            4 OUTER ITERATIONS 
       AND A TOTAL OF          7 INNER ITERATIONS.
    ------------------------------------------------

 NO OUTPUT CONTROL FOR STRESS PERIOD   36   TIME STEP   27
 
 SOLVING FOR HEAD 
                                                   Max.-Head-Change                         Max.-Flux-Residual
  Residual-Control   Outer-Iter.   Inner-Iter.     Column Row Layer    Maximum-Head-Change  Column Row Layer    Maximum-Flux-Residual          L2-NORM 
          0                 1           2             4    7     1      -0.3800575996E-01       4    7    1        -0.2007185850E+01      0.4005065599E+01
          0                 2           2             4    7     1       0.3696872447E-02       4    7    1         0.2007151286E+00      0.4005020822E+00
          0                 3           2             4    7     1      -0.2517438132E-03       4    7    1        -0.1405009778E-01      0.2803518151E-01
          0                 4           1             4    7     1       0.1001711896E-04       4    7    1         0.5746496320E-03      0.1146640905E-02

    ------------------------------------------------
       NWT REQUIRED            4 OUTER ITERATIONS 
       AND A TOTAL OF          7 INNER ITERATIONS.
    ------------------------------------------------

 NO OUTPUT CONTROL FOR STRESS PERIOD   36   TIME STEP   28
 
 SOLVING FOR HEAD 
                                                   Max.-Head-Change                         Max.-Flux-Residual
  Residual-Control   Outer-Iter.   Inner-Iter.     Column Row Layer    Maximum-Head-Change  Column Row Layer    Maximum-Flux-Residual          L2-NORM 
          0                 1           2             4    7     1      -0.3739283904E-01       4    7    1        -0.1974820965E+01      0.3940517360E+01
          0                 2           2             4    7     1       0.3637253646E-02       4    7    1         0.1974787525E+00      0.3940474941E+00
          0                 3           2             4    7     1      -0.2476839776E-03       4    7    1        -0.1382355028E-01      0.2758336567E-01
          0                 4           1             4    7     1       0.9855575135E-05       4    7    1         0.5653838705E-03      0.1128160968E-02

    ------------------------------------------------
       NWT REQUIRED            4 OUTER ITERATIONS 
       AND A TOTAL OF          7 INNER ITERATIONS.
    ------------------------------------------------

 NO OUTPUT CONTROL FOR STRESS PERIOD   36   TIME STEP   29
 
 SOLVING FOR HEAD 
                                                   Max.-Head-Change                         Max.-Flux-Residual
  Residual-Control   Outer-Iter.   Inner-Iter.     Column Row Layer    Maximum-Head-Change  Column Row Layer    Maximum-Flux-Residual          L2-NORM 
          0                 1           2             4    7     1      -0.3678948473E-01       4    7    1        -0.1942951317E+01      0.3877562541E+01
          0                 2           2             4    7     1       0.3578565373E-02       4    7    1         0.1942918974E+00      0.3877522277E+00
          0                 3           2             4    7     1      -0.2436875073E-03       4    7    1        -0.1360046928E-01      0.2714269707E-01
          0                 4           1             4    7     1       0.9696551683E-05       4    7    1         0.5562598201E-03      0.1110135656E-02

    ------------------------------------------------
       NWT REQUIRED            4 OUTER ITERATIONS 
       AND A TOTAL OF          7 INNER ITERATIONS.
    ------------------------------------------------

 NO OUTPUT CONTROL FOR STRESS PERIOD   36   TIME STEP   30



 STREAM LISTING     PERIOD     36   STEP       30

 LAYER ROW COL. STREAM  RCH.  FLOW INTO     FLOW TO   FLOW OUT OF   OVRLND.     DIRECT     STREAM       STREAM     STREAM     STREAM   STREAMBED  STREAMBED
                SEG.NO.  NO.  STRM. RCH.    AQUIFER    STRM. RCH.    RUNOFF     PRECIP       ET          HEAD       DEPTH      WIDTH   CONDCTNC.   GRADIENT

   1    1    1     1     1    1.9499E+01  2.1750E-01   1.9282E+01  0.000E+00  0.000E+00  0.000E+00  1.09414E+03  1.090E+00  1.182E+01  5.318E-02  1.363E+00
   1    2    2     1     2    1.9282E+01  3.3555E-01   1.8946E+01  0.000E+00  0.000E+00  0.000E+00  1.08914E+03  1.086E+00  1.173E+01  8.213E-02  1.362E+00
   1    3    3     1     3    1.8946E+01  2.8492E-01   1.8661E+01  0.000E+00  0.000E+00  0.000E+00  1.08350E+03  1.081E+00  1.164E+01  6.982E-02  1.360E+00
   1    3    4     1     4    1.8661E+01  2.6135E-01   1.8400E+01  0.000E+00  0.000E+00  0.000E+00  1.07848E+03  1.076E+00  1.155E+01  6.412E-02  1.359E+00
   1    4    5     2     1    1.6400E+01  3.0673E-01   1.6093E+01  0.000E+00  0.000E+00  0.000E+00  1.07287E+03  9.324E-01  1.200E+01  7.800E-02  1.311E+00
   1    5    6     2     2    1.6093E+01  2.3538E-01   1.5858E+01  0.000E+00  0.000E+00  0.000E+00  1.06743E+03  9.230E-01  1.200E+01  6.000E-02  1.308E+00
   1    6    6     2     3    1.5858E+01  2.3489E-01   1.5623E+01  0.000E+00  0.000E+00  0.000E+00  1.06271E+03  9.149E-01  1.200E+01  6.000E-02  1.305E+00
   1    7    6     2     4    1.5623E+01  2.3440E-01   1.5389E+01  0.000E+00  0.000E+00  0.000E+00  1.05798E+03  9.067E-01  1.200E+01  6.000E-02  1.302E+00
   1    8    6     2     5    1.5389E+01  2.3390E-01   1.5155E+01  0.000E+00  0.000E+00  0.000E+00  1.05326E+03  8.984E-01  1.200E+01  6.000E-02  1.299E+00
   1    3    5     3     1    2.0000E+00  2.8252E-01   1.7175E+00  0.000E+00  0.000E+00  0.000E+00  1.07555E+03  1.909E+00  9.636E+00  7.227E-02  1.955E+00
   1    3    6     3     2    1.7175E+00  2.4905E-01   1.4684E+00  0.000E+00  0.000E+00  0.000E+00  1.07264E+03  1.727E+00  8.909E+00  6.682E-02  1.864E+00
   1    3    7     3     3    1.4684E+00  1.9718E-01   1.2712E+00  0.000E+00  0.000E+00  0.000E+00  1.06987E+03  1.555E+00  8.218E+00  5.547E-02  1.777E+00
   1    4    8     3     4    1.2712E+00  2.2567E-01   1.0456E+00  0.000E+00  0.000E+00  0.000E+00  1.06682E+03  1.364E+00  7.455E+00  6.709E-02  1.682E+00
   1    5    8     3     5    1.0456E+00  1.5790E-01   8.8768E-01  0.000E+00  0.000E+00  0.000E+00  1.06362E+03  1.164E+00  6.655E+00  4.991E-02  1.582E+00
   1    6    8     3     6    8.8768E-01  5.5980E-02   8.3170E-01  0.000E+00  0.000E+00  0.000E+00  1.06158E+03  1.036E+00  6.145E+00  1.844E-02  1.518E+00
   1    5   10     4     1    1.0000E+01  9.0919E-02   9.9091E+00  0.000E+00  0.000E+00  0.000E+00  1.07836E+03  6.368E-01  1.000E+01  2.500E-02  1.212E+00
   1    5    9     4     2    9.9091E+00  1.8158E-01   9.7275E+00  0.000E+00  0.000E+00  0.000E+00  1.07154E+03  6.315E-01  1.000E+01  5.000E-02  1.211E+00
   1    6    8     4     3    9.7275E+00  1.2689E-01   9.6006E+00  0.000E+00  0.000E+00  0.000E+00  1.06381E+03  6.256E-01  1.000E+01  3.500E-02  1.209E+00
   1    6    8     5     1    1.0432E+01  2.2686E-01   1.0205E+01  0.000E+00  0.000E+00  0.000E+00  1.05868E+03  6.790E-01  1.542E+01  6.166E-02  1.226E+00
   1    7    7     5     2    1.0205E+01  2.7894E-01   9.9265E+00  0.000E+00  0.000E+00  0.000E+00  1.05417E+03  6.732E-01  1.519E+01  7.594E-02  1.224E+00
   1    8    7     5     3    9.9265E+00  1.9221E-01   9.7343E+00  0.000E+00  0.000E+00  0.000E+00  1.04992E+03  6.676E-01  1.497E+01  5.241E-02  1.223E+00
   1    8    6     5     4    9.7343E+00  1.3577E-01   9.5985E+00  0.000E+00  0.000E+00  0.000E+00  1.04691E+03  6.637E-01  1.482E+01  3.706E-02  1.221E+00
   1    9    6     6     1    2.4753E+01  2.5261E-01   2.4501E+01  0.000E+00  0.000E+00  0.000E+00  1.04394E+03  1.210E+00  1.200E+01  6.000E-02  1.403E+00
   1   10    7     6     2    2.4501E+01  2.5216E-01   2.4249E+01  0.000E+00  0.000E+00  0.000E+00  1.03938E+03  1.203E+00  1.200E+01  6.000E-02  1.401E+00
   1   11    7     6     3    2.4249E+01  2.5171E-01   2.3997E+01  0.000E+00  0.000E+00  0.000E+00  1.03483E+03  1.195E+00  1.200E+01  6.000E-02  1.398E+00
   1   12    7     6     4    2.3997E+01  2.5126E-01   2.3746E+01  0.000E+00  0.000E+00  0.000E+00  1.03028E+03  1.188E+00  1.200E+01  6.000E-02  1.396E+00
   1   13    7     6     5    2.3746E+01  7.9881E-04   2.3745E+01  0.000E+00  0.000E+00  0.000E+00  1.02709E+03  1.184E+00  1.200E+01  2.400E-02  1.109E-02
   1   14    9     7     1    1.5000E+02  1.3477E+00   1.4865E+02  0.000E+00  0.000E+00  0.000E+00  1.03987E+03  2.288E+00  5.529E+01  5.593E-01  8.032E-01
   1   13    8     7     2    1.4865E+02  1.8502E+00   1.4680E+02  0.000E+00  0.000E+00  0.000E+00  1.03478E+03  2.279E+00  5.526E+01  6.148E-01  1.003E+00
   1   13    7     7     3    1.4680E+02  1.4687E+00   1.4533E+02  0.000E+00  0.000E+00  0.000E+00  1.02969E+03  2.270E+00  5.522E+01  5.584E-01  8.767E-01
   1   13    6     8     1    1.6908E+02  9.0459E-01   1.6817E+02  0.000E+00  0.000E+00  0.000E+00  1.02482E+03  2.943E+00  4.268E+01  4.349E-01  6.933E-01
   1   13    5     8     2    1.6817E+02  1.4919E-01   1.6802E+02  0.000E+00  0.000E+00  0.000E+00  1.01856E+03  2.940E+00  4.263E+01  4.344E-01  1.145E-01
   1   13    4     8     3    1.6802E+02 -2.5570E+00   1.7058E+02  0.000E+00  0.000E+00  0.000E+00  1.01232E+03  2.948E+00  4.274E+01  4.355E+00 -1.957E-01
   1   13    3     8     4    1.7058E+02 -3.6915E+00   1.7427E+02  0.000E+00  0.000E+00  0.000E+00  1.00609E+03  2.968E+00  4.304E+01  4.385E+00 -2.806E-01
   1   13    2     8     5    1.7427E+02 -2.5854E+00   1.7686E+02  0.000E+00  0.000E+00  0.000E+00  9.99863E+02  2.988E+00  4.333E+01  4.415E+00 -1.952E-01
   1   13    1     8     6    1.7686E+02 -1.9889E+00   1.7885E+02  0.000E+00  0.000E+00  0.000E+00  9.94878E+02  3.003E+00  4.354E+01  2.662E+00 -2.491E-01
   1    8    6     9     1    0.0000E+00  0.0000E+00   0.0000E+00  0.000E+00  0.000E+00  0.000E+00  1.07875E+03  0.000E+00  4.000E+00  0.000E+00  1.000E+00
   1    8    5     9     2    0.0000E+00  0.0000E+00   0.0000E+00  0.000E+00  0.000E+00  0.000E+00  1.07825E+03  0.000E+00  4.000E+00  0.000E+00  1.000E+00





UNSATURATED ZONE PACKAGE VOLUMETRIC BUDGET FOR  TIME STEP    30 STRESS PERIOD   36
  ------------------------------------------------------------------------------



     CUMULATIVE VOLUMES      L**3       RATES FOR THIS TIME STEP      L**3/T
     ------------------                 ------------------------

           IN:                                      IN:
           ---                                      ---
        INFILTRATION =  4267229021.7477          INFILTRATION =           0.8475

          OUT:                                     OUT:
          ----                                     ----
              UZF ET =  1287589999.8722                UZF ET =           0.7500
        UZF RECHARGE =  2716293710.6995          UZF RECHARGE =       0.0000E+00

            IN - OUT =   263345311.1761              IN - OUT =       9.7500E-02

          STORAGE:                                 STORAGE:
          --------                                 --------
      STORAGE CHANGE =   263338176.9087        STORAGE CHANGE =       9.7500E-02

 PERCENT DISCREPANCY IS DIFFERENCE BETWEEN IN-OUT MINUS CHANGE IN STORAGE
 DIVIDED BY THE AVERAGE OF IN AND OUT TIMES 100

 PERCENT DISCREPANCY =           0.00     PERCENT DISCREPANCY =           0.00






1
  VOLUMETRIC BUDGET FOR AGRICULTURAL FIELDS AT  END OF TIME STEP   30, STRESS PERIOD  36
  ------------------------------------------------------------------------------

     CUMULATIVE VOLUMES      L**3       RATES FOR THIS TIME STEP      L**3/T
     ------------------                 ------------------------

           IN:                                      IN:
           ---                                      ---
           AG WELLS      =  2651762432.0000             AG WELLS      =           0.0000
      DIVERSION SEGMENTS =  1537368064.0000        DIVERSION SEGMENTS =           0.0000
           GW IRRIGATION =           0.0000             GW IRRIGATION =           0.0000
           SW IRRIGATION =           0.0000             SW IRRIGATION =           0.0000
        SYSTEM LOSSES GW =           0.0000          SYSTEM LOSSES GW =           0.0000
        SYSTEM LOSSES SW =           0.0000          SYSTEM LOSSES SW =           0.0000

                TOTAL IN =  4189130496.0000                  TOTAL IN =           0.0000

          OUT:                                     OUT:
          ----                                     ----
           AG WELLS      =           0.0000             AG WELLS      =           0.0000
      DIVERSION SEGMENTS =           0.0000        DIVERSION SEGMENTS =           0.0000
           GW IRRIGATION =  2651762432.0000             GW IRRIGATION =           0.0000
           SW IRRIGATION =  1537396352.0000             SW IRRIGATION =           0.0000
        SYSTEM LOSSES GW =           0.0000          SYSTEM LOSSES GW =           0.0000
        SYSTEM LOSSES SW =           0.0000          SYSTEM LOSSES SW =           0.0000

               TOTAL OUT =  4189158912.0000                 TOTAL OUT =           0.0000

                IN - OUT =      -28416.0000                  IN - OUT =           0.0000

     PERCENT DISCREPANCY =          -0.00         PERCENT DISCREPANCY =           0.00



1
  VOLUMETRIC BUDGET FOR ENTIRE MODEL AT END OF TIME STEP   30, STRESS PERIOD  36
  ------------------------------------------------------------------------------

     CUMULATIVE VOLUMES      L**3       RATES FOR THIS TIME STEP      L**3/T
     ------------------                 ------------------------

           IN:                                      IN:
           ---                                      ---
             STORAGE     =  2614042368.0000               STORAGE     =           9.2617
       CONSTANT HEAD     =           0.0000         CONSTANT HEAD     =           0.0000
     HEAD DEP BOUNDS     =    26366074.0000       HEAD DEP BOUNDS     =           0.2866
      STREAM LEAKAGE     =  1103844864.0000        STREAM LEAKAGE     =          11.4750
        UZF RECHARGE     =  2716292608.0000          UZF RECHARGE     =           0.0000
               GW ET     =           0.0000                 GW ET     =           0.0000
     SURFACE LEAKAGE     =           0.0000       SURFACE LEAKAGE     =           0.0000
           AG WELLS      =           0.0000             AG WELLS      =           0.0000

                TOTAL IN =  6460546048.0000                  TOTAL IN =          21.0232

          OUT:                                     OUT:
          ----                                     ----
             STORAGE     =  2791167488.0000               STORAGE     =           9.9106
       CONSTANT HEAD     =           0.0000         CONSTANT HEAD     =           0.0000
     HEAD DEP BOUNDS     =    26680188.0000       HEAD DEP BOUNDS     =           0.2897
      STREAM LEAKAGE     =   990821312.0000        STREAM LEAKAGE     =          10.8229
        UZF RECHARGE     =           0.0000          UZF RECHARGE     =           0.0000
               GW ET     =      151061.6094                 GW ET     =           0.0000
     SURFACE LEAKAGE     =           0.0000       SURFACE LEAKAGE     =           0.0000
           AG WELLS      =  2651762432.0000             AG WELLS      =           0.0000

               TOTAL OUT =  6460582400.0000                 TOTAL OUT =          21.0232

                IN - OUT =      -36352.0000                  IN - OUT =       7.6294E-06

     PERCENT DISCREPANCY =          -0.00         PERCENT DISCREPANCY =           0.00






         TIME SUMMARY AT END OF TIME STEP   30 IN STRESS PERIOD   36
                    SECONDS     MINUTES      HOURS       DAYS        YEARS
                    -----------------------------------------------------------
   TIME STEP LENGTH  87667.      1461.1      24.352      1.0147     2.77799E-03
 STRESS PERIOD TIME 2.63000E+06  43833.      730.56      30.440     8.33397E-02
         TOTAL TIME 9.21360E+07 1.53560E+06  25593.      1066.4      2.9196    
1
1
                            STRESS PERIOD NO.   37, LENGTH =   2630000.    
                            -----------------------------------------------

                              NUMBER OF TIME STEPS =    30

                               MULTIPLIER FOR DELT =     1.000

                            INITIAL TIME STEP SIZE =   87666.66    

 REUSING NON-PARAMETER GHB CELLS FROM LAST STRESS PERIOD

      2 GHB CELLS

 REUSING STREAM SEGMENT DATA FROM LAST STRESS PERIOD



            AREAL INFILTRATION RATE
 READING ON UNIT   19 WITH FORMAT: (FREE)              

            1           2           3           4           5           6           7           8           9          10
 ........................................................................................................................
   1   1.0000E-10  2.0000E-10   0.000       0.000       0.000       0.000       0.000       0.000       0.000       0.000    
   2   2.0000E-10  1.0000E-10  2.0000E-10   0.000       0.000      8.0000E-10  8.0000E-10  5.0000E-10   0.000       0.000    
   3    0.000      5.0000E-10  1.0000E-10  1.0000E-10  8.0000E-10  8.0000E-10  5.0000E-10  5.0000E-10   0.000       0.000    
   4   8.0000E-10  5.0000E-10  1.0000E-10  1.0000E-10  1.0000E-10  1.0000E-10  1.0000E-10  1.0000E-10  2.0000E-10   0.000    
   5   8.0000E-10  5.0000E-10  1.0000E-10  1.0000E-10  1.0000E-10  1.0000E-10  1.0000E-10  1.0000E-10  1.0000E-10  1.0000E-10
   6   8.0000E-10  5.0000E-10  5.0000E-10  2.0000E-10  2.0000E-10  1.0000E-10  1.0000E-10  1.0000E-10  1.0000E-10  5.0000E-10
   7   8.0000E-10  5.0000E-10  5.0000E-10  2.0000E-10  2.0000E-10  1.0000E-10  1.0000E-10  2.0000E-10  2.0000E-10   0.000    
   8    0.000      5.0000E-10  5.0000E-10  2.0000E-10  2.0000E-10  1.0000E-10  1.0000E-10  2.0000E-10  5.0000E-10   0.000    
   9    0.000      5.0000E-10  5.0000E-10  2.0000E-10  2.0000E-10  1.0000E-10  1.0000E-10  2.0000E-10  5.0000E-10   0.000    
  10    0.000      5.0000E-10  5.0000E-10  2.0000E-10  2.0000E-10  1.0000E-10  1.0000E-10  2.0000E-10  5.0000E-10  8.0000E-10
  11    0.000      1.0000E-10  1.0000E-10  1.0000E-10  1.0000E-10  1.0000E-10  1.0000E-10  2.0000E-10  5.0000E-10   0.000    
  12   1.0000E-10  1.0000E-10  1.0000E-10  1.0000E-10  1.0000E-10  1.0000E-10  1.0000E-10  1.0000E-10  2.0000E-10   0.000    
  13   1.0000E-10  1.0000E-10  2.0000E-10  2.0000E-10  2.0000E-10  2.0000E-10  2.0000E-10  1.0000E-10  1.0000E-10   0.000    
  14    0.000      2.0000E-10  5.0000E-10  5.0000E-10  5.0000E-10  5.0000E-10  5.0000E-10  2.0000E-10  1.0000E-10   0.000    
  15    0.000       0.000      8.0000E-10  8.0000E-10  8.0000E-10  8.0000E-10   0.000       0.000       0.000       0.000    

                  ET RATE =  5.000000E-10

 USING ET EXTINCTION DEPTH FROM PREVIOUS STRESS PERIOD. CURRENT PERIOD IS:      37

 USING EXTINCTION WATER CONTENT FROM PREVIOUS STRESS PERIOD. CURRENT PERIOD IS:      37

 USING AIR ENTRY PRESSURE FROM PREVIOUS STRESS PERIOD. CURRENT PERIOD IS:      37

 USING ROOT PRESSURE HEAD FROM PREVIOUS STRESS PERIOD. CURRENT PERIOD IS:      37

 USING ROOT ACTIVITY FROM PREVIOUS STRESS PERIOD. CURRENT PERIOD IS:      37

 PROCESSING AG STRESS PERIOD DATA

 READING AG STRESS PERIOD DATA

 READING IRRIGATION SEGMENT

 READING IRRIGATION WELL

 READING SUPPLEMENTAL WELL

 END PROCESSING AG STRESS PERIOD DATA OPTIONS
 
 SOLVING FOR HEAD 
                                                   Max.-Head-Change                         Max.-Flux-Residual
  Residual-Control   Outer-Iter.   Inner-Iter.     Column Row Layer    Maximum-Head-Change  Column Row Layer    Maximum-Flux-Residual          L2-NORM 
          0                 1           2             4    7     1      -0.3619624750E-01       4    7    1        -0.1911607611E+01      0.3815527409E+01
          0                 2           2             4    7     1       0.3520861170E-02       4    7    1         0.1911576335E+00      0.3815482873E+00
          0                 3           2             4    7     1      -0.2397580496E-03       4    7    1        -0.1338106973E-01      0.2670835899E-01
          0                 4           1             4    7     1       0.9540194586E-05       4    7    1         0.5472863700E-03      0.1092367765E-02

    ------------------------------------------------
       NWT REQUIRED            4 OUTER ITERATIONS 
       AND A TOTAL OF          7 INNER ITERATIONS.
    ------------------------------------------------

 NO OUTPUT CONTROL FOR STRESS PERIOD   37   TIME STEP    1
 
 SOLVING FOR HEAD 
                                                   Max.-Head-Change                         Max.-Flux-Residual
  Residual-Control   Outer-Iter.   Inner-Iter.     Column Row Layer    Maximum-Head-Change  Column Row Layer    Maximum-Flux-Residual          L2-NORM 
          0                 1           2             4    7     1      -0.3561309111E-01       4    7    1        -0.1880788484E+01      0.3754600879E+01
          0                 2           2             4    7     1       0.3464137512E-02       4    7    1         0.1880758245E+00      0.3755439050E+00
          0                 3           2             4    7     1      -0.2358953634E-03       4    7    1        -0.1316534201E-01      0.2628764915E-01
          0                 4           1             4    7     1       0.9386495095E-05       4    7    1         0.5384631017E-03      0.1075137458E-02

    ------------------------------------------------
       NWT REQUIRED            4 OUTER ITERATIONS 
       AND A TOTAL OF          7 INNER ITERATIONS.
    ------------------------------------------------

 NO OUTPUT CONTROL FOR STRESS PERIOD   37   TIME STEP    2
 
 SOLVING FOR HEAD 
                                                   Max.-Head-Change                         Max.-Flux-Residual
  Residual-Control   Outer-Iter.   Inner-Iter.     Column Row Layer    Maximum-Head-Change  Column Row Layer    Maximum-Flux-Residual          L2-NORM 
          0                 1           2             4    7     1      -0.3503968441E-01       4    7    1        -0.1850477113E+01      0.3695938478E+01
          0                 2           2             4    7     1       0.3408362188E-02       4    7    1         0.1850447882E+00      0.3695857630E+00
          0                 3           2             4    7     1      -0.2320972558E-03       4    7    1        -0.1295316843E-01      0.2587062522E-01
          0                 4           1             4    7     1       0.9235364561E-05       4    7    1         0.5297851847E-03      0.1058074015E-02

    ------------------------------------------------
       NWT REQUIRED            4 OUTER ITERATIONS 
       AND A TOTAL OF          7 INNER ITERATIONS.
    ------------------------------------------------

 NO OUTPUT CONTROL FOR STRESS PERIOD   37   TIME STEP    3
 
 SOLVING FOR HEAD 
                                                   Max.-Head-Change                         Max.-Flux-Residual
  Residual-Control   Outer-Iter.   Inner-Iter.     Column Row Layer    Maximum-Head-Change  Column Row Layer    Maximum-Flux-Residual          L2-NORM 
          0                 1           2             4    7     1      -0.3447624156E-01       4    7    1        -0.1820686220E+01      0.3638714184E+01
          0                 2           2             4    7     1       0.3353556029E-02       4    7    1         0.1820657967E+00      0.3638604484E+00
          0                 3           2             4    7     1      -0.2283651455E-03       4    7    1        -0.1274463802E-01      0.2546992029E-01
          0                 4           1             4    7     1       0.9086861009E-05       4    7    1         0.5212562960E-03      0.1041698798E-02

    ------------------------------------------------
       NWT REQUIRED            4 OUTER ITERATIONS 
       AND A TOTAL OF          7 INNER ITERATIONS.
    ------------------------------------------------

 NO OUTPUT CONTROL FOR STRESS PERIOD   37   TIME STEP    4
 
 SOLVING FOR HEAD 
                                                   Max.-Head-Change                         Max.-Flux-Residual
  Residual-Control   Outer-Iter.   Inner-Iter.     Column Row Layer    Maximum-Head-Change  Column Row Layer    Maximum-Flux-Residual          L2-NORM 
          0                 1           2             4    7     1      -0.3392239396E-01       4    7    1        -0.1791397017E+01      0.3582835986E+01
          0                 2           2             4    7     1       0.3299683182E-02       4    7    1         0.1791369714E+00      0.3582771436E+00
          0                 3           2             4    7     1      -0.2246965900E-03       4    7    1        -0.1253961924E-01      0.2507913450E-01
          0                 4           1             4    7     1       0.8940885659E-05       4    7    1         0.5128710177E-03      0.1025715594E-02

    ------------------------------------------------
       NWT REQUIRED            4 OUTER ITERATIONS 
       AND A TOTAL OF          7 INNER ITERATIONS.
    ------------------------------------------------

 NO OUTPUT CONTROL FOR STRESS PERIOD   37   TIME STEP    5
 
 SOLVING FOR HEAD 
                                                   Max.-Head-Change                         Max.-Flux-Residual
  Residual-Control   Outer-Iter.   Inner-Iter.     Column Row Layer    Maximum-Head-Change  Column Row Layer    Maximum-Flux-Residual          L2-NORM 
          0                 1           2             4    7     1      -0.3337860713E-01       4    7    1        -0.1762635225E+01      0.3528289990E+01
          0                 2           2             4    7     1       0.3246788927E-02       4    7    1         0.1762608842E+00      0.3528120843E+00
          0                 3           2             4    7     1      -0.2210946744E-03       4    7    1        -0.1233829219E-01      0.2469663039E-01
          0                 4           1             4    7     1       0.8797562158E-05       4    7    1         0.5046367478E-03      0.1010077074E-02

    ------------------------------------------------
       NWT REQUIRED            4 OUTER ITERATIONS 
       AND A TOTAL OF          7 INNER ITERATIONS.
    ------------------------------------------------

 NO OUTPUT CONTROL FOR STRESS PERIOD   37   TIME STEP    6
 
 SOLVING FOR HEAD 
                                                   Max.-Head-Change                         Max.-Flux-Residual
  Residual-Control   Outer-Iter.   Inner-Iter.     Column Row Layer    Maximum-Head-Change  Column Row Layer    Maximum-Flux-Residual          L2-NORM 
          0                 1           2             4    7     1      -0.3284449697E-01       4    7    1        -0.1734380148E+01      0.3475039626E+01
          0                 2           2             4    7     1       0.3194835906E-02       4    7    1         0.1734354655E+00      0.3474987600E+00
          0                 3           2             4    7     1      -0.2175568532E-03       4    7    1        -0.1214051196E-01      0.2432474188E-01
          0                 4           1             4    7     1       0.8656788964E-05       4    7    1         0.4965475255E-03      0.9948696399E-03

    ------------------------------------------------
       NWT REQUIRED            4 OUTER ITERATIONS 
       AND A TOTAL OF          7 INNER ITERATIONS.
    ------------------------------------------------

 NO OUTPUT CONTROL FOR STRESS PERIOD   37   TIME STEP    7
 
 SOLVING FOR HEAD 
                                                   Max.-Head-Change                         Max.-Flux-Residual
  Residual-Control   Outer-Iter.   Inner-Iter.     Column Row Layer    Maximum-Head-Change  Column Row Layer    Maximum-Flux-Residual          L2-NORM 
          0                 1           2             4    7     1      -0.3231966584E-01       4    7    1        -0.1706611874E+01      0.3423006091E+01
          0                 2           2             4    7     1       0.3143785439E-02       4    7    1         0.1706587244E+00      0.3422958952E+00
          0                 3           2             4    7     1      -0.2140804930E-03       4    7    1        -0.1194613918E-01      0.2396056043E-01
          0                 4           1             4    7     1       0.8518461540E-05       4    7    1         0.4885976687E-03      0.9799655574E-03

    ------------------------------------------------
       NWT REQUIRED            4 OUTER ITERATIONS 
       AND A TOTAL OF          7 INNER ITERATIONS.
    ------------------------------------------------

 NO OUTPUT CONTROL FOR STRESS PERIOD   37   TIME STEP    8
 
 SOLVING FOR HEAD 
                                                   Max.-Head-Change                         Max.-Flux-Residual
  Residual-Control   Outer-Iter.   Inner-Iter.     Column Row Layer    Maximum-Head-Change  Column Row Layer    Maximum-Flux-Residual          L2-NORM 
          0                 1           2             4    7     1      -0.3180456254E-01       4    7    1        -0.1679354607E+01      0.3372177322E+01
          0                 2           2             4    7     1       0.3093681182E-02       4    7    1         0.1679330812E+00      0.3372134450E+00
          0                 3           2             4    7     1      -0.2106685660E-03       4    7    1        -0.1175534327E-01      0.2360482732E-01
          0                 4           1             4    7     1       0.8382697087E-05       4    7    1         0.4807940747E-03      0.9654353310E-03

    ------------------------------------------------
       NWT REQUIRED            4 OUTER ITERATIONS 
       AND A TOTAL OF          7 INNER ITERATIONS.
    ------------------------------------------------

 NO OUTPUT CONTROL FOR STRESS PERIOD   37   TIME STEP    9
 
 SOLVING FOR HEAD 
                                                   Max.-Head-Change                         Max.-Flux-Residual
  Residual-Control   Outer-Iter.   Inner-Iter.     Column Row Layer    Maximum-Head-Change  Column Row Layer    Maximum-Flux-Residual          L2-NORM 
          0                 1           2             4    7     1      -0.3129876969E-01       4    7    1        -0.1652586795E+01      0.3322491353E+01
          0                 2           2             4    7     1       0.3044482537E-02       4    7    1         0.1652563808E+00      0.3322452547E+00
          0                 3           2             4    7     1      -0.2073183098E-03       4    7    1        -0.1156797341E-01      0.2325705936E-01
          0                 4           1             4    7     1       0.8249388075E-05       4    7    1         0.4731306899E-03      0.9512086050E-03

    ------------------------------------------------
       NWT REQUIRED            4 OUTER ITERATIONS 
       AND A TOTAL OF          7 INNER ITERATIONS.
    ------------------------------------------------

 NO OUTPUT CONTROL FOR STRESS PERIOD   37   TIME STEP   10
 
 SOLVING FOR HEAD 
                                                   Max.-Head-Change                         Max.-Flux-Residual
  Residual-Control   Outer-Iter.   Inner-Iter.     Column Row Layer    Maximum-Head-Change  Column Row Layer    Maximum-Flux-Residual          L2-NORM 
          0                 1           2             4    7     1      -0.3080215564E-01       4    7    1        -0.1626301737E+01      0.3273909675E+01
          0                 2           2             4    7     1       0.2996176699E-02       4    7    1         0.1626279531E+00      0.3273874697E+00
          0                 3           2             4    7     1      -0.2040288495E-03       4    7    1        -0.1138398265E-01      0.2291704378E-01
          0                 4           1             4    7     1       0.8118497434E-05       4    7    1         0.4656054468E-03      0.9372965590E-03

    ------------------------------------------------
       NWT REQUIRED            4 OUTER ITERATIONS 
       AND A TOTAL OF          7 INNER ITERATIONS.
    ------------------------------------------------

 NO OUTPUT CONTROL FOR STRESS PERIOD   37   TIME STEP   11
 
 SOLVING FOR HEAD 
                                                   Max.-Head-Change                         Max.-Flux-Residual
  Residual-Control   Outer-Iter.   Inner-Iter.     Column Row Layer    Maximum-Head-Change  Column Row Layer    Maximum-Flux-Residual          L2-NORM 
          0                 1           2             4    7     1      -0.3031458346E-01       4    7    1        -0.1600492608E+01      0.3226395689E+01
          0                 2           2             4    7     1       0.2948750348E-02       4    7    1         0.1600471157E+00      0.3226363591E+00
          0                 3           2             4    7     1      -0.2007992796E-03       4    7    1        -0.1120332323E-01      0.2258449951E-01
          0                 4           1             4    7     1       0.7989989474E-05       4    7    1         0.4582164638E-03      0.9236987831E-03

    ------------------------------------------------
       NWT REQUIRED            4 OUTER ITERATIONS 
       AND A TOTAL OF          7 INNER ITERATIONS.
    ------------------------------------------------

 NO OUTPUT CONTROL FOR STRESS PERIOD   37   TIME STEP   12
 
 SOLVING FOR HEAD 
                                                   Max.-Head-Change                         Max.-Flux-Residual
  Residual-Control   Outer-Iter.   Inner-Iter.     Column Row Layer    Maximum-Head-Change  Column Row Layer    Maximum-Flux-Residual          L2-NORM 
          0                 1           2             4    7     1      -0.2983619279E-01       4    7    1        -0.1575167242E+01      0.3179940818E+01
          0                 2           2             4    7     1       0.2902217070E-02       4    7    1         0.1575146521E+00      0.3179911299E+00
          0                 3           2             4    7     1      -0.1976305256E-03       4    7    1        -0.1102605001E-01      0.2225934118E-01
          0                 4           1             4    7     1       0.7863902187E-05       4    7    1         0.4509659896E-03      0.9104053713E-03

    ------------------------------------------------
       NWT REQUIRED            4 OUTER ITERATIONS 
       AND A TOTAL OF          7 INNER ITERATIONS.
    ------------------------------------------------

 NO OUTPUT CONTROL FOR STRESS PERIOD   37   TIME STEP   13
 
 SOLVING FOR HEAD 
                                                   Max.-Head-Change                         Max.-Flux-Residual
  Residual-Control   Outer-Iter.   Inner-Iter.     Column Row Layer    Maximum-Head-Change  Column Row Layer    Maximum-Flux-Residual          L2-NORM 
          0                 1           2             4    7     1      -0.2936655620E-01       4    7    1        -0.1550303007E+01      0.3134494530E+01
          0                 2           2             4    7     1       0.2856535289E-02       4    7    1         0.1550282991E+00      0.3134467486E+00
          0                 3           2             4    7     1      -0.1945197553E-03       4    7    1        -0.1085200457E-01      0.2194124140E-01
          0                 4           1             4    7     1       0.7740121596E-05       4    7    1         0.4438475189E-03      0.8974178954E-03

    ------------------------------------------------
       NWT REQUIRED            4 OUTER ITERATIONS 
       AND A TOTAL OF          7 INNER ITERATIONS.
    ------------------------------------------------

 NO OUTPUT CONTROL FOR STRESS PERIOD   37   TIME STEP   14
 
 SOLVING FOR HEAD 
                                                   Max.-Head-Change                         Max.-Flux-Residual
  Residual-Control   Outer-Iter.   Inner-Iter.     Column Row Layer    Maximum-Head-Change  Column Row Layer    Maximum-Flux-Residual          L2-NORM 
          0                 1           2             4    7     1      -0.2890580233E-01       4    7    1        -0.1525907613E+01      0.3090022259E+01
          0                 2           2             4    7     1       0.2811717517E-02       4    7    1         0.1525888277E+00      0.3089997071E+00
          0                 3           2             4    7     1      -0.1914678210E-03       4    7    1        -0.1068124085E-01      0.2162996815E-01
          0                 4           1             4    7     1       0.7618682240E-05       4    7    1         0.4368632701E-03      0.8846850361E-03

    ------------------------------------------------
       NWT REQUIRED            4 OUTER ITERATIONS 
       AND A TOTAL OF          7 INNER ITERATIONS.
    ------------------------------------------------

 NO OUTPUT CONTROL FOR STRESS PERIOD   37   TIME STEP   15
 
 SOLVING FOR HEAD 
                                                   Max.-Head-Change                         Max.-Flux-Residual
  Residual-Control   Outer-Iter.   Inner-Iter.     Column Row Layer    Maximum-Head-Change  Column Row Layer    Maximum-Flux-Residual          L2-NORM 
          0                 1           2             4    7     1      -0.2845349960E-01       4    7    1        -0.1501957858E+01      0.3046487675E+01
          0                 2           2             4    7     1       0.2767721775E-02       4    7    1         0.1501939180E+00      0.3046464358E+00
          0                 3           2             4    7     1      -0.1884718647E-03       4    7    1        -0.1051359648E-01      0.2132525106E-01
          0                 4           1             4    7     1       0.7499470373E-05       4    7    1         0.4300066121E-03      0.8722042641E-03

    ------------------------------------------------
       NWT REQUIRED            4 OUTER ITERATIONS 
       AND A TOTAL OF          7 INNER ITERATIONS.
    ------------------------------------------------

 NO OUTPUT CONTROL FOR STRESS PERIOD   37   TIME STEP   16
 
 SOLVING FOR HEAD 
                                                   Max.-Head-Change                         Max.-Flux-Residual
  Residual-Control   Outer-Iter.   Inner-Iter.     Column Row Layer    Maximum-Head-Change  Column Row Layer    Maximum-Flux-Residual          L2-NORM 
          0                 1           2             4    7     1      -0.2800977726E-01       4    7    1        -0.1478461234E+01      0.3003888597E+01
          0                 2           2             4    7     1       0.2724560637E-02       4    7    1         0.1478443191E+00      0.3003866795E+00
          0                 3           2             4    7     1      -0.1855327420E-03       4    7    1        -0.1034912388E-01      0.2102706423E-01
          0                 4           1             4    7     1       0.7382520072E-05       4    7    1         0.4232796778E-03      0.8602636338E-03

    ------------------------------------------------
       NWT REQUIRED            4 OUTER ITERATIONS 
       AND A TOTAL OF          7 INNER ITERATIONS.
    ------------------------------------------------

 NO OUTPUT CONTROL FOR STRESS PERIOD   37   TIME STEP   17
 
 SOLVING FOR HEAD 
                                                   Max.-Head-Change                         Max.-Flux-Residual
  Residual-Control   Outer-Iter.   Inner-Iter.     Column Row Layer    Maximum-Head-Change  Column Row Layer    Maximum-Flux-Residual          L2-NORM 
          0                 1           2             4    7     1      -0.2757447612E-01       4    7    1        -0.1455409507E+01      0.2962182909E+01
          0                 2           2             4    7     1       0.2682218619E-02       4    7    1         0.1455392076E+00      0.2962162572E+00
          0                 3           2             4    7     1      -0.1826493981E-03       4    7    1        -0.1018776542E-01      0.2073514789E-01
          0                 4           1             4    7     1       0.7267788971E-05       4    7    1         0.4166800982E-03      0.8480692493E-03

    ------------------------------------------------
       NWT REQUIRED            4 OUTER ITERATIONS 
       AND A TOTAL OF          7 INNER ITERATIONS.
    ------------------------------------------------

 NO OUTPUT CONTROL FOR STRESS PERIOD   37   TIME STEP   18
 
 SOLVING FOR HEAD 
                                                   Max.-Head-Change                         Max.-Flux-Residual
  Residual-Control   Outer-Iter.   Inner-Iter.     Column Row Layer    Maximum-Head-Change  Column Row Layer    Maximum-Flux-Residual          L2-NORM 
          0                 1           2             4    7     1      -0.2714716505E-01       4    7    1        -0.1432779492E+01      0.2921339224E+01
          0                 2           2             4    7     1       0.2640653786E-02       4    7    1         0.1432762653E+00      0.2921319986E+00
          0                 3           2             4    7     1      -0.1798189787E-03       4    7    1        -0.1002935883E-01      0.2044924657E-01
          0                 4           1             4    7     1       0.7155164015E-05       4    7    1         0.4102012711E-03      0.8363775179E-03

    ------------------------------------------------
       NWT REQUIRED            4 OUTER ITERATIONS 
       AND A TOTAL OF          7 INNER ITERATIONS.
    ------------------------------------------------

 NO OUTPUT CONTROL FOR STRESS PERIOD   37   TIME STEP   19
 
 SOLVING FOR HEAD 
                                                   Max.-Head-Change                         Max.-Flux-Residual
  Residual-Control   Outer-Iter.   Inner-Iter.     Column Row Layer    Maximum-Head-Change  Column Row Layer    Maximum-Flux-Residual          L2-NORM 
          0                 1           2             4    7     1      -0.2672796709E-01       4    7    1        -0.1410578699E+01      0.2881339135E+01
          0                 2           2             4    7     1       0.2599878105E-02       4    7    1         0.1410562430E+00      0.2881321155E+00
          0                 3           2             4    7     1      -0.1770422978E-03       4    7    1        -0.9873956672E-02      0.2016925930E-01
          0                 4           1             4    7     1       0.7044677438E-05       4    7    1         0.4038453180E-03      0.8249211159E-03

    ------------------------------------------------
       NWT REQUIRED            4 OUTER ITERATIONS 
       AND A TOTAL OF          7 INNER ITERATIONS.
    ------------------------------------------------

 NO OUTPUT CONTROL FOR STRESS PERIOD   37   TIME STEP   20
 
 SOLVING FOR HEAD 
                                                   Max.-Head-Change                         Max.-Flux-Residual
  Residual-Control   Outer-Iter.   Inner-Iter.     Column Row Layer    Maximum-Head-Change  Column Row Layer    Maximum-Flux-Residual          L2-NORM 
          0                 1           2             4    7     1      -0.2631672711E-01       4    7    1        -0.1388798574E+01      0.2842153972E+01
          0                 2           2             4    7     1       0.2559876464E-02       4    7    1         0.1388782855E+00      0.2841823059E+00
          0                 3           2             4    7     1      -0.1743183259E-03       4    7    1        -0.9721499044E-02      0.1989277941E-01
          0                 4           1             4    7     1       0.6936287796E-05       4    7    1         0.3976097817E-03      0.8136160652E-03

    ------------------------------------------------
       NWT REQUIRED            4 OUTER ITERATIONS 
       AND A TOTAL OF          7 INNER ITERATIONS.
    ------------------------------------------------

 NO OUTPUT CONTROL FOR STRESS PERIOD   37   TIME STEP   21
 
 SOLVING FOR HEAD 
                                                   Max.-Head-Change                         Max.-Flux-Residual
  Residual-Control   Outer-Iter.   Inner-Iter.     Column Row Layer    Maximum-Head-Change  Column Row Layer    Maximum-Flux-Residual          L2-NORM 
          0                 1           2             4    7     1      -0.2591328463E-01       4    7    1        -0.1367431076E+01      0.2803786733E+01
          0                 2           2             4    7     1       0.2520633328E-02       4    7    1         0.1367415888E+00      0.2803770749E+00
          0                 3           2             4    7     1      -0.1716460064E-03       4    7    1        -0.9571929721E-02      0.1962641703E-01
          0                 4           1             4    7     1       0.6829953872E-05       4    7    1         0.3914923905E-03      0.8027198610E-03

    ------------------------------------------------
       NWT REQUIRED            4 OUTER ITERATIONS 
       AND A TOTAL OF          7 INNER ITERATIONS.
    ------------------------------------------------

 NO OUTPUT CONTROL FOR STRESS PERIOD   37   TIME STEP   22
 
 SOLVING FOR HEAD 
                                                   Max.-Head-Change                         Max.-Flux-Residual
  Residual-Control   Outer-Iter.   Inner-Iter.     Column Row Layer    Maximum-Head-Change  Column Row Layer    Maximum-Flux-Residual          L2-NORM 
          0                 1           2             4    7     1      -0.2551748004E-01       4    7    1        -0.1346467878E+01      0.2766266739E+01
          0                 2           2             4    7     1       0.2482133097E-02       4    7    1         0.1346453202E+00      0.2766251527E+00
          0                 3           2             4    7     1      -0.1690242760E-03       4    7    1        -0.9425190367E-02      0.1936378083E-01
          0                 4           1             4    7     1       0.6725633069E-05       4    7    1         0.3854907577E-03      0.7919796862E-03

    ------------------------------------------------
       NWT REQUIRED            4 OUTER ITERATIONS 
       AND A TOTAL OF          7 INNER ITERATIONS.
    ------------------------------------------------

 NO OUTPUT CONTROL FOR STRESS PERIOD   37   TIME STEP   23
 
 SOLVING FOR HEAD 
                                                   Max.-Head-Change                         Max.-Flux-Residual
  Residual-Control   Outer-Iter.   Inner-Iter.     Column Row Layer    Maximum-Head-Change  Column Row Layer    Maximum-Flux-Residual          L2-NORM 
          0                 1           2             4    7     1      -0.2512916538E-01       4    7    1        -0.1325900711E+01      0.2729511208E+01
          0                 2           2             4    7     1       0.2444360431E-02       4    7    1         0.1325886529E+00      0.2728998497E+00
          0                 3           2             4    7     1      -0.1664520905E-03       4    7    1        -0.9281223137E-02      0.1910300860E-01
          0                 4           1             4    7     1       0.6623283481E-05       4    7    1         0.3796024976E-03      0.7813141541E-03

    ------------------------------------------------
       NWT REQUIRED            4 OUTER ITERATIONS 
       AND A TOTAL OF          7 INNER ITERATIONS.
    ------------------------------------------------

 NO OUTPUT CONTROL FOR STRESS PERIOD   37   TIME STEP   24
 
 SOLVING FOR HEAD 
                                                   Max.-Head-Change                         Max.-Flux-Residual
  Residual-Control   Outer-Iter.   Inner-Iter.     Column Row Layer    Maximum-Head-Change  Column Row Layer    Maximum-Flux-Residual          L2-NORM 
          0                 1           2             4    7     1      -0.2474819516E-01       4    7    1        -0.1305721950E+01      0.2693501782E+01
          0                 2           2             4    7     1       0.2407304102E-02       4    7    1         0.1305708245E+00      0.2693488292E+00
          0                 3           2             4    7     1      -0.1639286848E-03       4    7    1        -0.9139974638E-02      0.1885443539E-01
          0                 4           1             4    7     1       0.6522874714E-05       4    7    1         0.3738254170E-03      0.7711488798E-03

    ------------------------------------------------
       NWT REQUIRED            4 OUTER ITERATIONS 
       AND A TOTAL OF          7 INNER ITERATIONS.
    ------------------------------------------------

 NO OUTPUT CONTROL FOR STRESS PERIOD   37   TIME STEP   25
 
 SOLVING FOR HEAD 
                                                   Max.-Head-Change                         Max.-Flux-Residual
  Residual-Control   Outer-Iter.   Inner-Iter.     Column Row Layer    Maximum-Head-Change  Column Row Layer    Maximum-Flux-Residual          L2-NORM 
          0                 1           2             4    7     1      -0.2437469007E-01       4    7    1        -0.1285938824E+01      0.2658385861E+01
          0                 2           2             4    7     1       0.2370972926E-02       4    7    1         0.1285925578E+00      0.2658372932E+00
          0                 3           2             4    7     1      -0.1614546596E-03       4    7    1        -0.9001495463E-02      0.1860863205E-01
          0                 4           1             4    7     1       0.6424430945E-05       4    7    1         0.3681616129E-03      0.7610993305E-03

    ------------------------------------------------
       NWT REQUIRED            4 OUTER ITERATIONS 
       AND A TOTAL OF          7 INNER ITERATIONS.
    ------------------------------------------------

 NO OUTPUT CONTROL FOR STRESS PERIOD   37   TIME STEP   26
 
 SOLVING FOR HEAD 
                                                   Max.-Head-Change                         Max.-Flux-Residual
  Residual-Control   Outer-Iter.   Inner-Iter.     Column Row Layer    Maximum-Head-Change  Column Row Layer    Maximum-Flux-Residual          L2-NORM 
          0                 1           2             4    7     1      -0.2400795192E-01       4    7    1        -0.1266512970E+01      0.2623939284E+01
          0                 2           2             4    7     1       0.2335299964E-02       4    7    1         0.1266500167E+00      0.2623926720E+00
          0                 3           2             4    7     1      -0.1590254567E-03       4    7    1        -0.8865517106E-02      0.1836749887E-01
          0                 4           1             4    7     1       0.6327770963E-05       4    7    1         0.3626001030E-03      0.7512378608E-03

    ------------------------------------------------
       NWT REQUIRED            4 OUTER ITERATIONS 
       AND A TOTAL OF          7 INNER ITERATIONS.
    ------------------------------------------------

 NO OUTPUT CONTROL FOR STRESS PERIOD   37   TIME STEP   27
 
 SOLVING FOR HEAD 
                                                   Max.-Head-Change                         Max.-Flux-Residual
  Residual-Control   Outer-Iter.   Inner-Iter.     Column Row Layer    Maximum-Head-Change  Column Row Layer    Maximum-Flux-Residual          L2-NORM 
          0                 1           2             4    7     1      -0.2364839111E-01       4    7    1        -0.1247467833E+01      0.2590157071E+01
          0                 2           2             4    7     1       0.2300325138E-02       4    7    1         0.1247455458E+00      0.2590527534E+00
          0                 3           2             4    7     1      -0.1566437949E-03       4    7    1        -0.8732203698E-02      0.1813370249E-01
          0                 4           1             4    7     1       0.6233002297E-05       4    7    1         0.3571475741E-03      0.7416644838E-03

    ------------------------------------------------
       NWT REQUIRED            4 OUTER ITERATIONS 
       AND A TOTAL OF          7 INNER ITERATIONS.
    ------------------------------------------------

 NO OUTPUT CONTROL FOR STRESS PERIOD   37   TIME STEP   28
 
 SOLVING FOR HEAD 
                                                   Max.-Head-Change                         Max.-Flux-Residual
  Residual-Control   Outer-Iter.   Inner-Iter.     Column Row Layer    Maximum-Head-Change  Column Row Layer    Maximum-Flux-Residual          L2-NORM 
          0                 1           2             4    7     1      -0.2329558152E-01       4    7    1        -0.1228779920E+01      0.2556995875E+01
          0                 2           2             4    7     1       0.2266007000E-02       4    7    1         0.1228767957E+00      0.2556984234E+00
          0                 3           2             4    7     1      -0.1543068508E-03       4    7    1        -0.8601390732E-02      0.1789890627E-01
          0                 4           1             4    7     1       0.6140013504E-05       4    7    1         0.3517973360E-03      0.7320647859E-03

    ------------------------------------------------
       NWT REQUIRED            4 OUTER ITERATIONS 
       AND A TOTAL OF          7 INNER ITERATIONS.
    ------------------------------------------------

 NO OUTPUT CONTROL FOR STRESS PERIOD   37   TIME STEP   29
 
 SOLVING FOR HEAD 
                                                   Max.-Head-Change                         Max.-Flux-Residual
  Residual-Control   Outer-Iter.   Inner-Iter.     Column Row Layer    Maximum-Head-Change  Column Row Layer    Maximum-Flux-Residual          L2-NORM 
          0                 1           2             4    7     1      -0.2294965573E-01       4    7    1        -0.1210456983E+01      0.2524430587E+01
          0                 2           2             4    7     1       0.2232358444E-02       4    7    1         0.1210445417E+00      0.2524419226E+00
          0                 3           2             4    7     1      -0.1520155028E-03       4    7    1        -0.8473132520E-02      0.1767097301E-01
          0                 4           1             4    7     1       0.6048838431E-05       4    7    1         0.3465515542E-03      0.7227463472E-03

    ------------------------------------------------
       NWT REQUIRED            4 OUTER ITERATIONS 
       AND A TOTAL OF          7 INNER ITERATIONS.
    ------------------------------------------------

 NO OUTPUT CONTROL FOR STRESS PERIOD   37   TIME STEP   30



 STREAM LISTING     PERIOD     37   STEP       30

 LAYER ROW COL. STREAM  RCH.  FLOW INTO     FLOW TO   FLOW OUT OF   OVRLND.     DIRECT     STREAM       STREAM     STREAM     STREAM   STREAMBED  STREAMBED
                SEG.NO.  NO.  STRM. RCH.    AQUIFER    STRM. RCH.    RUNOFF     PRECIP       ET          HEAD       DEPTH      WIDTH   CONDCTNC.   GRADIENT

   1    1    1     1     1    1.7249E+01  2.0269E-01   1.7047E+01  0.000E+00  0.000E+00  0.000E+00  1.09410E+03  1.052E+00  1.112E+01  5.002E-02  1.351E+00
   1    2    2     1     2    1.7047E+01  3.1257E-01   1.6734E+01  0.000E+00  0.000E+00  0.000E+00  1.08911E+03  1.047E+00  1.103E+01  7.723E-02  1.349E+00
   1    3    3     1     3    1.6734E+01  2.6529E-01   1.6469E+01  0.000E+00  0.000E+00  0.000E+00  1.08346E+03  1.042E+00  1.094E+01  6.563E-02  1.347E+00
   1    3    4     1     4    1.6469E+01  2.4324E-01   1.6226E+01  0.000E+00  0.000E+00  0.000E+00  1.07845E+03  1.038E+00  1.085E+01  6.024E-02  1.346E+00
   1    4    5     2     1    1.4226E+01  3.0073E-01   1.3925E+01  0.000E+00  0.000E+00  0.000E+00  1.07279E+03  8.555E-01  1.200E+01  7.800E-02  1.285E+00
   1    5    6     2     2    1.3925E+01  2.3075E-01   1.3694E+01  0.000E+00  0.000E+00  0.000E+00  1.06736E+03  8.458E-01  1.200E+01  6.000E-02  1.282E+00
   1    6    6     2     3    1.3694E+01  2.3024E-01   1.3464E+01  0.000E+00  0.000E+00  0.000E+00  1.06263E+03  8.373E-01  1.200E+01  6.000E-02  1.279E+00
   1    7    6     2     4    1.3464E+01  2.2972E-01   1.3234E+01  0.000E+00  0.000E+00  0.000E+00  1.05790E+03  8.287E-01  1.200E+01  6.000E-02  1.276E+00
   1    8    6     2     5    1.3234E+01  2.2921E-01   1.3005E+01  0.000E+00  0.000E+00  0.000E+00  1.05318E+03  8.202E-01  1.200E+01  6.000E-02  1.273E+00
   1    3    5     3     1    2.0000E+00  2.8252E-01   1.7175E+00  0.000E+00  0.000E+00  0.000E+00  1.07555E+03  1.909E+00  9.636E+00  7.227E-02  1.955E+00
   1    3    6     3     2    1.7175E+00  2.4905E-01   1.4684E+00  0.000E+00  0.000E+00  0.000E+00  1.07264E+03  1.727E+00  8.909E+00  6.682E-02  1.864E+00
   1    3    7     3     3    1.4684E+00  1.9718E-01   1.2712E+00  0.000E+00  0.000E+00  0.000E+00  1.06987E+03  1.555E+00  8.218E+00  5.547E-02  1.777E+00
   1    4    8     3     4    1.2712E+00  2.2567E-01   1.0456E+00  0.000E+00  0.000E+00  0.000E+00  1.06682E+03  1.364E+00  7.455E+00  6.709E-02  1.682E+00
   1    5    8     3     5    1.0456E+00  1.5790E-01   8.8768E-01  0.000E+00  0.000E+00  0.000E+00  1.06362E+03  1.164E+00  6.655E+00  4.991E-02  1.582E+00
   1    6    8     3     6    8.8768E-01  5.5980E-02   8.3170E-01  0.000E+00  0.000E+00  0.000E+00  1.06158E+03  1.036E+00  6.145E+00  1.844E-02  1.518E+00
   1    5   10     4     1    1.0000E+01  9.0919E-02   9.9091E+00  0.000E+00  0.000E+00  0.000E+00  1.07836E+03  6.368E-01  1.000E+01  2.500E-02  1.212E+00
   1    5    9     4     2    9.9091E+00  1.8158E-01   9.7275E+00  0.000E+00  0.000E+00  0.000E+00  1.07154E+03  6.315E-01  1.000E+01  5.000E-02  1.211E+00
   1    6    8     4     3    9.7275E+00  1.2689E-01   9.6006E+00  0.000E+00  0.000E+00  0.000E+00  1.06381E+03  6.256E-01  1.000E+01  3.500E-02  1.209E+00
   1    6    8     5     1    1.0432E+01  2.2686E-01   1.0205E+01  0.000E+00  0.000E+00  0.000E+00  1.05868E+03  6.790E-01  1.542E+01  6.166E-02  1.226E+00
   1    7    7     5     2    1.0205E+01  2.7894E-01   9.9265E+00  0.000E+00  0.000E+00  0.000E+00  1.05417E+03  6.732E-01  1.519E+01  7.594E-02  1.224E+00
   1    8    7     5     3    9.9265E+00  1.9221E-01   9.7343E+00  0.000E+00  0.000E+00  0.000E+00  1.04992E+03  6.676E-01  1.497E+01  5.241E-02  1.223E+00
   1    8    6     5     4    9.7343E+00  1.3577E-01   9.5985E+00  0.000E+00  0.000E+00  0.000E+00  1.04691E+03  6.637E-01  1.482E+01  3.706E-02  1.221E+00
   1    9    6     6     1    2.2604E+01  2.4874E-01   2.2355E+01  0.000E+00  0.000E+00  0.000E+00  1.04387E+03  1.146E+00  1.200E+01  6.000E-02  1.382E+00
   1   10    7     6     2    2.2355E+01  2.4828E-01   2.2107E+01  0.000E+00  0.000E+00  0.000E+00  1.03932E+03  1.138E+00  1.200E+01  6.000E-02  1.379E+00
   1   11    7     6     3    2.2107E+01  2.4782E-01   2.1859E+01  0.000E+00  0.000E+00  0.000E+00  1.03477E+03  1.130E+00  1.200E+01  6.000E-02  1.377E+00
   1   12    7     6     4    2.1859E+01  2.4736E-01   2.1611E+01  0.000E+00  0.000E+00  0.000E+00  1.03021E+03  1.123E+00  1.200E+01  6.000E-02  1.374E+00
   1   13    7     6     5    2.1611E+01 -8.8505E-03   2.1620E+01  0.000E+00  0.000E+00  0.000E+00  1.02703E+03  1.119E+00  1.200E+01  2.400E-01 -1.229E-02
   1   14    9     7     1    1.5000E+02  1.3476E+00   1.4865E+02  0.000E+00  0.000E+00  0.000E+00  1.03987E+03  2.288E+00  5.529E+01  5.593E-01  8.032E-01
   1   13    8     7     2    1.4865E+02  1.8487E+00   1.4680E+02  0.000E+00  0.000E+00  0.000E+00  1.03478E+03  2.279E+00  5.526E+01  6.148E-01  1.002E+00
   1   13    7     7     3    1.4680E+02  1.4658E+00   1.4534E+02  0.000E+00  0.000E+00  0.000E+00  1.02969E+03  2.270E+00  5.522E+01  5.584E-01  8.749E-01
   1   13    6     8     1    1.6696E+02  8.9048E-01   1.6607E+02  0.000E+00  0.000E+00  0.000E+00  1.02480E+03  2.929E+00  4.248E+01  4.328E-01  6.858E-01
   1   13    5     8     2    1.6607E+02  1.3759E-01   1.6593E+02  0.000E+00  0.000E+00  0.000E+00  1.01855E+03  2.926E+00  4.243E+01  4.323E-01  1.061E-01
   1   13    4     8     3    1.6593E+02 -2.5931E+00   1.6852E+02  0.000E+00  0.000E+00  0.000E+00  1.01231E+03  2.934E+00  4.254E+01  4.335E+00 -1.994E-01
   1   13    3     8     4    1.6852E+02 -3.7023E+00   1.7223E+02  0.000E+00  0.000E+00  0.000E+00  1.00608E+03  2.955E+00  4.284E+01  4.366E+00 -2.827E-01
   1   13    2     8     5    1.7223E+02 -2.5829E+00   1.7481E+02  0.000E+00  0.000E+00  0.000E+00  9.99850E+02  2.975E+00  4.314E+01  4.396E+00 -1.959E-01
   1   13    1     8     6    1.7481E+02 -1.9848E+00   1.7679E+02  0.000E+00  0.000E+00  0.000E+00  9.94865E+02  2.990E+00  4.335E+01  2.650E+00 -2.496E-01
   1    8    6     9     1    0.0000E+00  0.0000E+00   0.0000E+00  0.000E+00  0.000E+00  0.000E+00  1.07875E+03  0.000E+00  4.000E+00  0.000E+00  1.000E+00
   1    8    5     9     2    0.0000E+00  0.0000E+00   0.0000E+00  0.000E+00  0.000E+00  0.000E+00  1.07825E+03  0.000E+00  4.000E+00  0.000E+00  1.000E+00





UNSATURATED ZONE PACKAGE VOLUMETRIC BUDGET FOR  TIME STEP    30 STRESS PERIOD   37
  ------------------------------------------------------------------------------



     CUMULATIVE VOLUMES      L**3       RATES FOR THIS TIME STEP      L**3/T
     ------------------                 ------------------------

           IN:                                      IN:
           ---                                      ---
        INFILTRATION =  4269457946.6204          INFILTRATION =           0.8475

          OUT:                                     OUT:
          ----                                     ----
              UZF ET =  1289562499.7465                UZF ET =           0.7500
        UZF RECHARGE =  2716293710.6995          UZF RECHARGE =       0.0000E+00

            IN - OUT =   263601736.1745              IN - OUT =       9.7500E-02

          STORAGE:                                 STORAGE:
          --------                                 --------
      STORAGE CHANGE =   263594601.9232        STORAGE CHANGE =       9.7500E-02

 PERCENT DISCREPANCY IS DIFFERENCE BETWEEN IN-OUT MINUS CHANGE IN STORAGE
 DIVIDED BY THE AVERAGE OF IN AND OUT TIMES 100

 PERCENT DISCREPANCY =           0.00     PERCENT DISCREPANCY =           0.00






1
  VOLUMETRIC BUDGET FOR AGRICULTURAL FIELDS AT  END OF TIME STEP   30, STRESS PERIOD  37
  ------------------------------------------------------------------------------

     CUMULATIVE VOLUMES      L**3       RATES FOR THIS TIME STEP      L**3/T
     ------------------                 ------------------------

           IN:                                      IN:
           ---                                      ---
           AG WELLS      =  2651762432.0000             AG WELLS      =           0.0000
      DIVERSION SEGMENTS =  1537368064.0000        DIVERSION SEGMENTS =           0.0000
           GW IRRIGATION =           0.0000             GW IRRIGATION =           0.0000
           SW IRRIGATION =           0.0000             SW IRRIGATION =           0.0000
        SYSTEM LOSSES GW =           0.0000          SYSTEM LOSSES GW =           0.0000
        SYSTEM LOSSES SW =           0.0000          SYSTEM LOSSES SW =           0.0000

                TOTAL IN =  4189130496.0000                  TOTAL IN =           0.0000

          OUT:                                     OUT:
          ----                                     ----
           AG WELLS      =           0.0000             AG WELLS      =           0.0000
      DIVERSION SEGMENTS =           0.0000        DIVERSION SEGMENTS =           0.0000
           GW IRRIGATION =  2651762432.0000             GW IRRIGATION =           0.0000
           SW IRRIGATION =  1537396352.0000             SW IRRIGATION =           0.0000
        SYSTEM LOSSES GW =           0.0000          SYSTEM LOSSES GW =           0.0000
        SYSTEM LOSSES SW =           0.0000          SYSTEM LOSSES SW =           0.0000

               TOTAL OUT =  4189158912.0000                 TOTAL OUT =           0.0000

                IN - OUT =      -28416.0000                  IN - OUT =           0.0000

     PERCENT DISCREPANCY =          -0.00         PERCENT DISCREPANCY =           0.00



1
  VOLUMETRIC BUDGET FOR ENTIRE MODEL AT END OF TIME STEP   30, STRESS PERIOD  37
  ------------------------------------------------------------------------------

     CUMULATIVE VOLUMES      L**3       RATES FOR THIS TIME STEP      L**3/T
     ------------------                 ------------------------

           IN:                                      IN:
           ---                                      ---
             STORAGE     =  2635092480.0000               STORAGE     =           6.9041
       CONSTANT HEAD     =           0.0000         CONSTANT HEAD     =           0.0000
     HEAD DEP BOUNDS     =    27119734.0000       HEAD DEP BOUNDS     =           0.2866
      STREAM LEAKAGE     =  1133665408.0000        STREAM LEAKAGE     =          11.3283
        UZF RECHARGE     =  2716292608.0000          UZF RECHARGE     =           0.0000
               GW ET     =           0.0000                 GW ET     =           0.0000
     SURFACE LEAKAGE     =           0.0000       SURFACE LEAKAGE     =           0.0000
           AG WELLS      =           0.0000             AG WELLS      =           0.0000

                TOTAL IN =  6512169984.0000                  TOTAL IN =          18.5189

          OUT:                                     OUT:
          ----                                     ----
             STORAGE     =  2813365760.0000               STORAGE     =           7.3575
       CONSTANT HEAD     =           0.0000         CONSTANT HEAD     =           0.0000
     HEAD DEP BOUNDS     =    27441514.0000       HEAD DEP BOUNDS     =           0.2893
      STREAM LEAKAGE     =  1019486528.0000        STREAM LEAKAGE     =          10.8720
        UZF RECHARGE     =           0.0000          UZF RECHARGE     =           0.0000
               GW ET     =      151061.6094                 GW ET     =           0.0000
     SURFACE LEAKAGE     =           0.0000       SURFACE LEAKAGE     =           0.0000
           AG WELLS      =  2651762432.0000             AG WELLS      =           0.0000

               TOTAL OUT =  6512206848.0000                 TOTAL OUT =          18.5189

                IN - OUT =      -36864.0000                  IN - OUT =       7.6294E-06

     PERCENT DISCREPANCY =          -0.00         PERCENT DISCREPANCY =           0.00






         TIME SUMMARY AT END OF TIME STEP   30 IN STRESS PERIOD   37
                    SECONDS     MINUTES      HOURS       DAYS        YEARS
                    -----------------------------------------------------------
   TIME STEP LENGTH  87667.      1461.1      24.352      1.0147     2.77799E-03
 STRESS PERIOD TIME 2.63000E+06  43833.      730.56      30.440     8.33397E-02
         TOTAL TIME 9.47660E+07 1.57943E+06  26324.      1096.8      3.0030    
1
1
                            STRESS PERIOD NO.   38, LENGTH =   2630000.    
                            -----------------------------------------------

                              NUMBER OF TIME STEPS =    30

                               MULTIPLIER FOR DELT =     1.000

                            INITIAL TIME STEP SIZE =   87666.66    

 REUSING NON-PARAMETER GHB CELLS FROM LAST STRESS PERIOD

      2 GHB CELLS

 REUSING STREAM SEGMENT DATA FROM LAST STRESS PERIOD



            AREAL INFILTRATION RATE
 READING ON UNIT   19 WITH FORMAT: (FREE)              

            1           2           3           4           5           6           7           8           9          10
 ........................................................................................................................
   1   1.0000E-10  2.0000E-10   0.000       0.000       0.000       0.000       0.000       0.000       0.000       0.000    
   2   2.0000E-10  1.0000E-10  2.0000E-10   0.000       0.000      8.0000E-10  8.0000E-10  5.0000E-10   0.000       0.000    
   3    0.000      5.0000E-10  1.0000E-10  1.0000E-10  8.0000E-10  8.0000E-10  5.0000E-10  5.0000E-10   0.000       0.000    
   4   8.0000E-10  5.0000E-10  1.0000E-10  1.0000E-10  1.0000E-10  1.0000E-10  1.0000E-10  1.0000E-10  2.0000E-10   0.000    
   5   8.0000E-10  5.0000E-10  1.0000E-10  1.0000E-10  1.0000E-10  1.0000E-10  1.0000E-10  1.0000E-10  1.0000E-10  1.0000E-10
   6   8.0000E-10  5.0000E-10  5.0000E-10  2.0000E-10  2.0000E-10  1.0000E-10  1.0000E-10  1.0000E-10  1.0000E-10  5.0000E-10
   7   8.0000E-10  5.0000E-10  5.0000E-10  2.0000E-10  2.0000E-10  1.0000E-10  1.0000E-10  2.0000E-10  2.0000E-10   0.000    
   8    0.000      5.0000E-10  5.0000E-10  2.0000E-10  2.0000E-10  1.0000E-10  1.0000E-10  2.0000E-10  5.0000E-10   0.000    
   9    0.000      5.0000E-10  5.0000E-10  2.0000E-10  2.0000E-10  1.0000E-10  1.0000E-10  2.0000E-10  5.0000E-10   0.000    
  10    0.000      5.0000E-10  5.0000E-10  2.0000E-10  2.0000E-10  1.0000E-10  1.0000E-10  2.0000E-10  5.0000E-10  8.0000E-10
  11    0.000      1.0000E-10  1.0000E-10  1.0000E-10  1.0000E-10  1.0000E-10  1.0000E-10  2.0000E-10  5.0000E-10   0.000    
  12   1.0000E-10  1.0000E-10  1.0000E-10  1.0000E-10  1.0000E-10  1.0000E-10  1.0000E-10  1.0000E-10  2.0000E-10   0.000    
  13   1.0000E-10  1.0000E-10  2.0000E-10  2.0000E-10  2.0000E-10  2.0000E-10  2.0000E-10  1.0000E-10  1.0000E-10   0.000    
  14    0.000      2.0000E-10  5.0000E-10  5.0000E-10  5.0000E-10  5.0000E-10  5.0000E-10  2.0000E-10  1.0000E-10   0.000    
  15    0.000       0.000      8.0000E-10  8.0000E-10  8.0000E-10  8.0000E-10   0.000       0.000       0.000       0.000    

                  ET RATE =  5.000000E-10

 USING ET EXTINCTION DEPTH FROM PREVIOUS STRESS PERIOD. CURRENT PERIOD IS:      38

 USING EXTINCTION WATER CONTENT FROM PREVIOUS STRESS PERIOD. CURRENT PERIOD IS:      38

 USING AIR ENTRY PRESSURE FROM PREVIOUS STRESS PERIOD. CURRENT PERIOD IS:      38

 USING ROOT PRESSURE HEAD FROM PREVIOUS STRESS PERIOD. CURRENT PERIOD IS:      38

 USING ROOT ACTIVITY FROM PREVIOUS STRESS PERIOD. CURRENT PERIOD IS:      38

 PROCESSING AG STRESS PERIOD DATA

 READING AG STRESS PERIOD DATA

 READING IRRIGATION SEGMENT

 READING IRRIGATION WELL

 READING SUPPLEMENTAL WELL

 END PROCESSING AG STRESS PERIOD DATA OPTIONS
 
 SOLVING FOR HEAD 
                                                   Max.-Head-Change                         Max.-Flux-Residual
  Residual-Control   Outer-Iter.   Inner-Iter.     Column Row Layer    Maximum-Head-Change  Column Row Layer    Maximum-Flux-Residual          L2-NORM 
          0                 1           2             4    7     1      -0.2261018800E-01       4    7    1        -0.1192476051E+01      0.2492474742E+01
          0                 2           2             4    7     1       0.2199335744E-02       4    7    1         0.1192464868E+00      0.2491286818E+00
          0                 3           2             4    7     1      -0.1497667742E-03       4    7    1        -0.8347268269E-02      0.1743902257E-01
          0                 4           1             4    7     1       0.5959359418E-05       4    7    1         0.3414037124E-03      0.7132574049E-03

    ------------------------------------------------
       NWT REQUIRED            4 OUTER ITERATIONS 
       AND A TOTAL OF          7 INNER ITERATIONS.
    ------------------------------------------------

 NO OUTPUT CONTROL FOR STRESS PERIOD   38   TIME STEP    1
 
 SOLVING FOR HEAD 
                                                   Max.-Head-Change                         Max.-Flux-Residual
  Residual-Control   Outer-Iter.   Inner-Iter.     Column Row Layer    Maximum-Head-Change  Column Row Layer    Maximum-Flux-Residual          L2-NORM 
          0                 1           2             4    7     1      -0.2227705993E-01       4    7    1        -0.1174830095E+01      0.2459933808E+01
          0                 2           2             4    7     1       0.2166934336E-02       4    7    1         0.1174819282E+00      0.2459899660E+00
          0                 3           2             4    7     1      -0.1475603528E-03       4    7    1        -0.8223748760E-02      0.1721905676E-01
          0                 4           1             4    7     1       0.5871563571E-05       4    7    1         0.3363517490E-03      0.7042226787E-03

    ------------------------------------------------
       NWT REQUIRED            4 OUTER ITERATIONS 
       AND A TOTAL OF          7 INNER ITERATIONS.
    ------------------------------------------------

 NO OUTPUT CONTROL FOR STRESS PERIOD   38   TIME STEP    2
 
 SOLVING FOR HEAD 
                                                   Max.-Head-Change                         Max.-Flux-Residual
  Residual-Control   Outer-Iter.   Inner-Iter.     Column Row Layer    Maximum-Head-Change  Column Row Layer    Maximum-Flux-Residual          L2-NORM 
          0                 1           2             4    7     1      -0.2195042190E-01       4    7    1        -0.1157527526E+01      0.2429252969E+01
          0                 2           2             4    7     1       0.2135161894E-02       4    7    1         0.1157517071E+00      0.2429133533E+00
          0                 3           2             4    7     1      -0.1453967615E-03       4    7    1        -0.8102632891E-02      0.1700291679E-01
          0                 4           1             4    7     1       0.5785472533E-05       4    7    1         0.3313981078E-03      0.6953639464E-03

    ------------------------------------------------
       NWT REQUIRED            4 OUTER ITERATIONS 
       AND A TOTAL OF          7 INNER ITERATIONS.
    ------------------------------------------------

 NO OUTPUT CONTROL FOR STRESS PERIOD   38   TIME STEP    3
 
 SOLVING FOR HEAD 
                                                   Max.-Head-Change                         Max.-Flux-Residual
  Residual-Control   Outer-Iter.   Inner-Iter.     Column Row Layer    Maximum-Head-Change  Column Row Layer    Maximum-Flux-Residual          L2-NORM 
          0                 1           2             4    7     1      -0.2162985359E-01       4    7    1        -0.1140546672E+01      0.2398797274E+01
          0                 2           2             4    7     1       0.2103979930E-02       4    7    1         0.1140536560E+00      0.2398695762E+00
          0                 3           2             4    7     1      -0.1432734018E-03       4    7    1        -0.7983768944E-02      0.1678851042E-01
          0                 4           1             4    7     1       0.5700981999E-05       4    7    1         0.3265365626E-03      0.6865758902E-03

    ------------------------------------------------
       NWT REQUIRED            4 OUTER ITERATIONS 
       AND A TOTAL OF          7 INNER ITERATIONS.
    ------------------------------------------------

 NO OUTPUT CONTROL FOR STRESS PERIOD   38   TIME STEP    4
 
 SOLVING FOR HEAD 
                                                   Max.-Head-Change                         Max.-Flux-Residual
  Residual-Control   Outer-Iter.   Inner-Iter.     Column Row Layer    Maximum-Head-Change  Column Row Layer    Maximum-Flux-Residual          L2-NORM 
          0                 1           2             4    7     1      -0.2131549379E-01       4    7    1        -0.1123895450E+01      0.2368938389E+01
          0                 2           2             4    7     1       0.2073401568E-02       4    7    1         0.1123885670E+00      0.2368998252E+00
          0                 3           2             4    7     1      -0.1411911023E-03       4    7    1        -0.7867212337E-02      0.1658220460E-01
          0                 4           1             4    7     1       0.5618125586E-05       4    7    1         0.3217693920E-03      0.6781499054E-03

    ------------------------------------------------
       NWT REQUIRED            4 OUTER ITERATIONS 
       AND A TOTAL OF          7 INNER ITERATIONS.
    ------------------------------------------------

 NO OUTPUT CONTROL FOR STRESS PERIOD   38   TIME STEP    5
 
 SOLVING FOR HEAD 
                                                   Max.-Head-Change                         Max.-Flux-Residual
  Residual-Control   Outer-Iter.   Inner-Iter.     Column Row Layer    Maximum-Head-Change  Column Row Layer    Maximum-Flux-Residual          L2-NORM 
          0                 1           2             4    7     1      -0.2100720527E-01       4    7    1        -0.1107566153E+01      0.2339661997E+01
          0                 2           2             4    7     1       0.2043414171E-02       4    7    1         0.1107556693E+00      0.2339587698E+00
          0                 3           2             4    7     1      -0.1391490668E-03       4    7    1        -0.7752909142E-02      0.1637648782E-01
          0                 4           1             4    7     1       0.5536871058E-05       4    7    1         0.3170943787E-03      0.6697677769E-03

    ------------------------------------------------
       NWT REQUIRED            4 OUTER ITERATIONS 
       AND A TOTAL OF          7 INNER ITERATIONS.
    ------------------------------------------------

 NO OUTPUT CONTROL FOR STRESS PERIOD   38   TIME STEP    6
 
 SOLVING FOR HEAD 
                                                   Max.-Head-Change                         Max.-Flux-Residual
  Residual-Control   Outer-Iter.   Inner-Iter.     Column Row Layer    Maximum-Head-Change  Column Row Layer    Maximum-Flux-Residual          L2-NORM 
          0                 1           2             4    7     1      -0.2070484742E-01       4    7    1        -0.1091551633E+01      0.2310939248E+01
          0                 2           2             4    7     1       0.2014003454E-02       4    7    1         0.1091542481E+00      0.2310876030E+00
          0                 3           2             4    7     1      -0.1371463019E-03       4    7    1        -0.7640809328E-02      0.1617564805E-01
          0                 4           1             4    7     1       0.5457179042E-05       4    7    1         0.3125095052E-03      0.6615531352E-03

    ------------------------------------------------
       NWT REQUIRED            4 OUTER ITERATIONS 
       AND A TOTAL OF          7 INNER ITERATIONS.
    ------------------------------------------------

 NO OUTPUT CONTROL FOR STRESS PERIOD   38   TIME STEP    7
 
 SOLVING FOR HEAD 
                                                   Max.-Head-Change                         Max.-Flux-Residual
  Residual-Control   Outer-Iter.   Inner-Iter.     Column Row Layer    Maximum-Head-Change  Column Row Layer    Maximum-Flux-Residual          L2-NORM 
          0                 1           2             4    7     1      -0.2040800478E-01       4    7    1        -0.1075829713E+01      0.2282750713E+01
          0                 2           2             4    7     1       0.1985129200E-02       4    7    1         0.1075820859E+00      0.2282697006E+00
          0                 3           2             4    7     1      -0.1351800677E-03       4    7    1        -0.7530757642E-02      0.1597848755E-01
          0                 4           1             4    7     1       0.5378940628E-05       4    7    1         0.3080083659E-03      0.6535173479E-03

    ------------------------------------------------
       NWT REQUIRED            4 OUTER ITERATIONS 
       AND A TOTAL OF          7 INNER ITERATIONS.
    ------------------------------------------------

 NO OUTPUT CONTROL FOR STRESS PERIOD   38   TIME STEP    8
 
 SOLVING FOR HEAD 
                                                   Max.-Head-Change                         Max.-Flux-Residual
  Residual-Control   Outer-Iter.   Inner-Iter.     Column Row Layer    Maximum-Head-Change  Column Row Layer    Maximum-Flux-Residual          L2-NORM 
          0                 1           2             4    7     1      -0.2011683210E-01       4    7    1        -0.1060408675E+01      0.2255094966E+01
          0                 2           2             4    7     1       0.1956806462E-02       4    7    1         0.1060400107E+00      0.2255048964E+00
          0                 3           2             4    7     1      -0.1332513902E-03       4    7    1        -0.7422812045E-02      0.1578498530E-01
          0                 4           1             4    7     1       0.5302197260E-05       4    7    1         0.3035934130E-03      0.6455880461E-03

    ------------------------------------------------
       NWT REQUIRED            4 OUTER ITERATIONS 
       AND A TOTAL OF          7 INNER ITERATIONS.
    ------------------------------------------------

 NO OUTPUT CONTROL FOR STRESS PERIOD   38   TIME STEP    9
 
 SOLVING FOR HEAD 
                                                   Max.-Head-Change                         Max.-Flux-Residual
  Residual-Control   Outer-Iter.   Inner-Iter.     Column Row Layer    Maximum-Head-Change  Column Row Layer    Maximum-Flux-Residual          L2-NORM 
          0                 1           2             4    7     1      -0.1983119411E-01       4    7    1        -0.1045281625E+01      0.2227942199E+01
          0                 2           2             4    7     1       0.1929022084E-02       4    7    1         0.1045273333E+00      0.2227903025E+00
          0                 3           1             4    7     1      -0.1313593737E-03       4    7    1        -0.7316924321E-02      0.1559506743E-01
          0                 4           1             4    7     1       0.5226912559E-05       4    7    1         0.2992625841E-03      0.6378411536E-03

    ------------------------------------------------
       NWT REQUIRED            4 OUTER ITERATIONS 
       AND A TOTAL OF          6 INNER ITERATIONS.
    ------------------------------------------------

 NO OUTPUT CONTROL FOR STRESS PERIOD   38   TIME STEP   10
 
 SOLVING FOR HEAD 
                                                   Max.-Head-Change                         Max.-Flux-Residual
  Residual-Control   Outer-Iter.   Inner-Iter.     Column Row Layer    Maximum-Head-Change  Column Row Layer    Maximum-Flux-Residual          L2-NORM 
          0                 1           2             4    7     1      -0.1955069292E-01       4    7    1        -0.1030426635E+01      0.2201283470E+01
          0                 2           2             4    7     1       0.1901737362E-02       4    7    1         0.1030418610E+00      0.2201250815E+00
          0                 3           1             4    7     1      -0.1295013817E-03       4    7    1        -0.7212940990E-02      0.1540859390E-01
          0                 4           1             4    7     1       0.5152981298E-05       4    7    1         0.2950096537E-03      0.6301952088E-03

    ------------------------------------------------
       NWT REQUIRED            4 OUTER ITERATIONS 
       AND A TOTAL OF          6 INNER ITERATIONS.
    ------------------------------------------------

 NO OUTPUT CONTROL FOR STRESS PERIOD   38   TIME STEP   11
 
 SOLVING FOR HEAD 
                                                   Max.-Head-Change                         Max.-Flux-Residual
  Residual-Control   Outer-Iter.   Inner-Iter.     Column Row Layer    Maximum-Head-Change  Column Row Layer    Maximum-Flux-Residual          L2-NORM 
          0                 1           2             4    7     1      -0.1927575616E-01       4    7    1        -0.1015867818E+01      0.2175113667E+01
          0                 2           2             4    7     1       0.1874993893E-02       4    7    1         0.1015860050E+00      0.2175085125E+00
          0                 3           1             4    7     1      -0.1276802472E-03       4    7    1        -0.7111030773E-02      0.1522544521E-01
          0                 4           1             4    7     1       0.5080516993E-05       4    7    1         0.2908415463E-03      0.6227742689E-03

    ------------------------------------------------
       NWT REQUIRED            4 OUTER ITERATIONS 
       AND A TOTAL OF          6 INNER ITERATIONS.
    ------------------------------------------------

 NO OUTPUT CONTROL FOR STRESS PERIOD   38   TIME STEP   12
 
 SOLVING FOR HEAD 
                                                   Max.-Head-Change                         Max.-Flux-Residual
  Residual-Control   Outer-Iter.   Inner-Iter.     Column Row Layer    Maximum-Head-Change  Column Row Layer    Maximum-Flux-Residual          L2-NORM 
          0                 1           2             4    7     1      -0.1900570024E-01       4    7    1        -0.1001567690E+01      0.2149400943E+01
          0                 2           2             4    7     1       0.1848725183E-02       4    7    1         0.1001560169E+00      0.2149376529E+00
          0                 3           1             4    7     1      -0.1258914415E-03       4    7    1        -0.7010931322E-02      0.1504548153E-01
          0                 4           1             4    7     1       0.5009338664E-05       4    7    1         0.2867474636E-03      0.6153415051E-03

    ------------------------------------------------
       NWT REQUIRED            4 OUTER ITERATIONS 
       AND A TOTAL OF          6 INNER ITERATIONS.
    ------------------------------------------------

 NO OUTPUT CONTROL FOR STRESS PERIOD   38   TIME STEP   13
 
 SOLVING FOR HEAD 
                                                   Max.-Head-Change                         Max.-Flux-Residual
  Residual-Control   Outer-Iter.   Inner-Iter.     Column Row Layer    Maximum-Head-Change  Column Row Layer    Maximum-Flux-Residual          L2-NORM 
          0                 1           2             4    7     1      -0.1874096643E-01       4    7    1        -0.9875504612E+00      0.2124146993E+01
          0                 2           2             4    7     1       0.1822974156E-02       4    7    1         0.9875431792E-01      0.2124126465E+00
          0                 3           1             4    7     1      -0.1241378887E-03       4    7    1        -0.6912812129E-02      0.1486878111E-01
          0                 4           1             4    7     1       0.4939563049E-05       4    7    1         0.2827343801E-03      0.6081534184E-03

    ------------------------------------------------
       NWT REQUIRED            4 OUTER ITERATIONS 
       AND A TOTAL OF          6 INNER ITERATIONS.
    ------------------------------------------------

 NO OUTPUT CONTROL FOR STRESS PERIOD   38   TIME STEP   14
 
 SOLVING FOR HEAD 
                                                   Max.-Head-Change                         Max.-Flux-Residual
  Residual-Control   Outer-Iter.   Inner-Iter.     Column Row Layer    Maximum-Head-Change  Column Row Layer    Maximum-Flux-Residual          L2-NORM 
          0                 1           2             4    7     1      -0.1848115260E-01       4    7    1        -0.9737942704E+00      0.2099349287E+01
          0                 2           2             4    7     1       0.1797701696E-02       4    7    1         0.9737872186E-01      0.2099331500E+00
          0                 3           1             4    7     1      -0.1224169242E-03       4    7    1        -0.6816520136E-02      0.1469522559E-01
          0                 4           1             4    7     1       0.4871084461E-05       4    7    1         0.2787960334E-03      0.6010286619E-03

    ------------------------------------------------
       NWT REQUIRED            4 OUTER ITERATIONS 
       AND A TOTAL OF          6 INNER ITERATIONS.
    ------------------------------------------------

 NO OUTPUT CONTROL FOR STRESS PERIOD   38   TIME STEP   15
 
 SOLVING FOR HEAD 
                                                   Max.-Head-Change                         Max.-Flux-Residual
  Residual-Control   Outer-Iter.   Inner-Iter.     Column Row Layer    Maximum-Head-Change  Column Row Layer    Maximum-Flux-Residual          L2-NORM 
          0                 1           2             4    7     1      -0.1822586137E-01       4    7    1        -0.9602782706E+00      0.2074965970E+01
          0                 2           2             4    7     1       0.1772869149E-02       4    7    1         0.9602714408E-01      0.2074950553E+00
          0                 3           1             4    7     1      -0.1207259169E-03       4    7    1        -0.6721909449E-02      0.1452456362E-01
          0                 4           1             4    7     1       0.4803797675E-05       4    7    1         0.2749264597E-03      0.5940356253E-03

    ------------------------------------------------
       NWT REQUIRED            4 OUTER ITERATIONS 
       AND A TOTAL OF          6 INNER ITERATIONS.
    ------------------------------------------------

 NO OUTPUT CONTROL FOR STRESS PERIOD   38   TIME STEP   16
 
 SOLVING FOR HEAD 
                                                   Max.-Head-Change                         Max.-Flux-Residual
  Residual-Control   Outer-Iter.   Inner-Iter.     Column Row Layer    Maximum-Head-Change  Column Row Layer    Maximum-Flux-Residual          L2-NORM 
          0                 1           2             4    7     1      -0.1797554223E-01       4    7    1        -0.9470265906E+00      0.2051002294E+01
          0                 2           2             4    7     1       0.1748520241E-02       4    7    1         0.9470199751E-01      0.2050989138E+00
          0                 3           1             4    7     1      -0.1190678434E-03       4    7    1        -0.6629148944E-02      0.1435686936E-01
          0                 4           1             4    7     1       0.4737821501E-05       4    7    1         0.2711325428E-03      0.5871912133E-03

    ------------------------------------------------
       NWT REQUIRED            4 OUTER ITERATIONS 
       AND A TOTAL OF          6 INNER ITERATIONS.
    ------------------------------------------------

 NO OUTPUT CONTROL FOR STRESS PERIOD   38   TIME STEP   17
 
 SOLVING FOR HEAD 
                                                   Max.-Head-Change                         Max.-Flux-Residual
  Residual-Control   Outer-Iter.   Inner-Iter.     Column Row Layer    Maximum-Head-Change  Column Row Layer    Maximum-Flux-Residual          L2-NORM 
          0                 1           2             4    7     1      -0.1772980087E-01       4    7    1        -0.9340178033E+00      0.2027455172E+01
          0                 2           2             4    7     1       0.1724616613E-02       4    7    1         0.9340113943E-01      0.2027443772E+00
          0                 3           1             4    7     1      -0.1174400919E-03       4    7    1        -0.6538088641E-02      0.1419205860E-01
          0                 4           1             4    7     1       0.4673051634E-05       4    7    1         0.2674081813E-03      0.5804525446E-03

    ------------------------------------------------
       NWT REQUIRED            4 OUTER ITERATIONS 
       AND A TOTAL OF          6 INNER ITERATIONS.
    ------------------------------------------------

 NO OUTPUT CONTROL FOR STRESS PERIOD   38   TIME STEP   18
 
 SOLVING FOR HEAD 
                                                   Max.-Head-Change                         Max.-Flux-Residual
  Residual-Control   Outer-Iter.   Inner-Iter.     Column Row Layer    Maximum-Head-Change  Column Row Layer    Maximum-Flux-Residual          L2-NORM 
          0                 1           2             4    7     1      -0.1748852493E-01       4    7    1        -0.9212463739E+00      0.2004304378E+01
          0                 2           2             4    7     1       0.1701147339E-02       4    7    1         0.9212401641E-01      0.2004294363E+00
          0                 3           1             4    7     1      -0.1158419185E-03       4    7    1        -0.6448689798E-02      0.1403001157E-01
          0                 4           1             4    7     1       0.4609459062E-05       4    7    1         0.2637517671E-03      0.5738248974E-03

    ------------------------------------------------
       NWT REQUIRED            4 OUTER ITERATIONS 
       AND A TOTAL OF          6 INNER ITERATIONS.
    ------------------------------------------------

 NO OUTPUT CONTROL FOR STRESS PERIOD   38   TIME STEP   19
 
 SOLVING FOR HEAD 
                                                   Max.-Head-Change                         Max.-Flux-Residual
  Residual-Control   Outer-Iter.   Inner-Iter.     Column Row Layer    Maximum-Head-Change  Column Row Layer    Maximum-Flux-Residual          L2-NORM 
          0                 1           2             4    7     1      -0.1725161694E-01       4    7    1        -0.9087064779E+00      0.1981548836E+01
          0                 2           2             4    7     1       0.1678100751E-02       4    7    1         0.9087004608E-01      0.1981110974E+00
          0                 3           1             4    7     1      -0.1142725284E-03       4    7    1        -0.6360911663E-02      0.1386775048E-01
          0                 4           1             4    7     1       0.4547011088E-05       4    7    1         0.2601616211E-03      0.5671840479E-03

    ------------------------------------------------
       NWT REQUIRED            4 OUTER ITERATIONS 
       AND A TOTAL OF          6 INNER ITERATIONS.
    ------------------------------------------------

 NO OUTPUT CONTROL FOR STRESS PERIOD   38   TIME STEP   20
 
 SOLVING FOR HEAD 
                                                   Max.-Head-Change                         Max.-Flux-Residual
  Residual-Control   Outer-Iter.   Inner-Iter.     Column Row Layer    Maximum-Head-Change  Column Row Layer    Maximum-Flux-Residual          L2-NORM 
          0                 1           2             4    7     1      -0.1701925308E-01       4    7    1        -0.8964080854E+00      0.1959211776E+01
          0                 2           2             4    7     1       0.1655500546E-02       4    7    1         0.8964022538E-01      0.1959209863E+00
          0                 3           1             4    7     1      -0.1127335358E-03       4    7    1        -0.6274824006E-02      0.1371575759E-01
          0                 4           1             4    7     1       0.4485773566E-05       4    7    1         0.2566406399E-03      0.5609687631E-03

    ------------------------------------------------
       NWT REQUIRED            4 OUTER ITERATIONS 
       AND A TOTAL OF          6 INNER ITERATIONS.
    ------------------------------------------------

 NO OUTPUT CONTROL FOR STRESS PERIOD   38   TIME STEP   21
 
 SOLVING FOR HEAD 
                                                   Max.-Head-Change                         Max.-Flux-Residual
  Residual-Control   Outer-Iter.   Inner-Iter.     Column Row Layer    Maximum-Head-Change  Column Row Layer    Maximum-Flux-Residual          L2-NORM 
          0                 1           2             4    7     1      -0.1679076682E-01       4    7    1        -0.8843152565E+00      0.1937234055E+01
          0                 2           2             4    7     1       0.1633275330E-02       4    7    1         0.8843096043E-01      0.1937227377E+00
          0                 3           1             4    7     1      -0.1112200781E-03       4    7    1        -0.6190175238E-02      0.1356057575E-01
          0                 4           1             4    7     1       0.4425551700E-05       4    7    1         0.2531785080E-03      0.5546254419E-03

    ------------------------------------------------
       NWT REQUIRED            4 OUTER ITERATIONS 
       AND A TOTAL OF          6 INNER ITERATIONS.
    ------------------------------------------------

 NO OUTPUT CONTROL FOR STRESS PERIOD   38   TIME STEP   22
 
 SOLVING FOR HEAD 
                                                   Max.-Head-Change                         Max.-Flux-Residual
  Residual-Control   Outer-Iter.   Inner-Iter.     Column Row Layer    Maximum-Head-Change  Column Row Layer    Maximum-Flux-Residual          L2-NORM 
          0                 1           2             4    7     1      -0.1656662725E-01       4    7    1        -0.8724534150E+00      0.1915633089E+01
          0                 2           2             4    7     1       0.1611472917E-02       4    7    1         0.8724479358E-01      0.1915565818E+00
          0                 3           1             4    7     1      -0.1097354120E-03       4    7    1        -0.6107143365E-02      0.1340893514E-01
          0                 4           1             4    7     1       0.4366474893E-05       4    7    1         0.2497824787E-03      0.5484262833E-03

    ------------------------------------------------
       NWT REQUIRED            4 OUTER ITERATIONS 
       AND A TOTAL OF          6 INNER ITERATIONS.
    ------------------------------------------------

 NO OUTPUT CONTROL FOR STRESS PERIOD   38   TIME STEP   23
 
 SOLVING FOR HEAD 
                                                   Max.-Head-Change                         Max.-Flux-Residual
  Residual-Control   Outer-Iter.   Inner-Iter.     Column Row Layer    Maximum-Head-Change  Column Row Layer    Maximum-Flux-Residual          L2-NORM 
          0                 1           2             4    7     1      -0.1634672823E-01       4    7    1        -0.8608169481E+00      0.1894386071E+01
          0                 2           2             4    7     1       0.1590082986E-02       4    7    1         0.8608116356E-01      0.1894380845E+00
          0                 3           1             4    7     1      -0.1082788350E-03       4    7    1        -0.6025689090E-02      0.1326066889E-01
          0                 4           1             4    7     1       0.4308516665E-05       4    7    1         0.2464510064E-03      0.5423620443E-03

    ------------------------------------------------
       NWT REQUIRED            4 OUTER ITERATIONS 
       AND A TOTAL OF          6 INNER ITERATIONS.
    ------------------------------------------------

 NO OUTPUT CONTROL FOR STRESS PERIOD   38   TIME STEP   24
 
 SOLVING FOR HEAD 
                                                   Max.-Head-Change                         Max.-Flux-Residual
  Residual-Control   Outer-Iter.   Inner-Iter.     Column Row Layer    Maximum-Head-Change  Column Row Layer    Maximum-Flux-Residual          L2-NORM 
          0                 1           2             4    7     1      -0.1613041348E-01       4    7    1        -0.8493705404E+00      0.1873484670E+01
          0                 2           2             4    7     1       0.1569041700E-02       4    7    1         0.8493653895E-01      0.1873479829E+00
          0                 3           1             4    7     1      -0.1068459989E-03       4    7    1        -0.5945565175E-02      0.1311435894E-01
          0                 4           1             4    7     1       0.4251502715E-05       4    7    1         0.2431739258E-03      0.5381501725E-03

    ------------------------------------------------
       NWT REQUIRED            4 OUTER ITERATIONS 
       AND A TOTAL OF          6 INNER ITERATIONS.
    ------------------------------------------------

 NO OUTPUT CONTROL FOR STRESS PERIOD   38   TIME STEP   25
 
 SOLVING FOR HEAD 
                                                   Max.-Head-Change                         Max.-Flux-Residual
  Residual-Control   Outer-Iter.   Inner-Iter.     Column Row Layer    Maximum-Head-Change  Column Row Layer    Maximum-Flux-Residual          L2-NORM 
          0                 1           2             4    7     1      -0.1591843297E-01       4    7    1        -0.8381546971E+00      0.1852941261E+01
          0                 2           2             4    7     1       0.1548422006E-02       4    7    1         0.8381497013E-01      0.1852936789E+00
          0                 3           1             4    7     1      -0.1054418718E-03       4    7    1        -0.5867055162E-02      0.1297056183E-01
          0                 4           1             4    7     1       0.4195631060E-05       4    7    1         0.2399628597E-03      0.5304951821E-03

    ------------------------------------------------
       NWT REQUIRED            4 OUTER ITERATIONS 
       AND A TOTAL OF          6 INNER ITERATIONS.
    ------------------------------------------------

 NO OUTPUT CONTROL FOR STRESS PERIOD   38   TIME STEP   26
 
 SOLVING FOR HEAD 
                                                   Max.-Head-Change                         Max.-Flux-Residual
  Residual-Control   Outer-Iter.   Inner-Iter.     Column Row Layer    Maximum-Head-Change  Column Row Layer    Maximum-Flux-Residual          L2-NORM 
          0                 1           2             4    7     1      -0.1570985376E-01       4    7    1        -0.8271188658E+00      0.1832713105E+01
          0                 2           2             4    7     1       0.1528133160E-02       4    7    1         0.8271140205E-01      0.1832708944E+00
          0                 3           1             4    7     1      -0.1040602745E-03       4    7    1        -0.5789805215E-02      0.1282896767E-01
          0                 4           1             4    7     1       0.4140656249E-05       4    7    1         0.2368033463E-03      0.5247057623E-03

    ------------------------------------------------
       NWT REQUIRED            4 OUTER ITERATIONS 
       AND A TOTAL OF          6 INNER ITERATIONS.
    ------------------------------------------------

 NO OUTPUT CONTROL FOR STRESS PERIOD   38   TIME STEP   27
 
 SOLVING FOR HEAD 
                                                   Max.-Head-Change                         Max.-Flux-Residual
  Residual-Control   Outer-Iter.   Inner-Iter.     Column Row Layer    Maximum-Head-Change  Column Row Layer    Maximum-Flux-Residual          L2-NORM 
          0                 1           2             4    7     1      -0.1550514949E-01       4    7    1        -0.8162892040E+00      0.1812807620E+01
          0                 2           2             4    7     1       0.1508221232E-02       4    7    1         0.8162845039E-01      0.1812803615E+00
          0                 3           1             4    7     1      -0.1027043440E-03       4    7    1        -0.5713998451E-02      0.1268962674E-01
          0                 4           1             4    7     1       0.4086702390E-05       4    7    1         0.2337028322E-03      0.5190049663E-03

    ------------------------------------------------
       NWT REQUIRED            4 OUTER ITERATIONS 
       AND A TOTAL OF          6 INNER ITERATIONS.
    ------------------------------------------------

 NO OUTPUT CONTROL FOR STRESS PERIOD   38   TIME STEP   28
 
 SOLVING FOR HEAD 
                                                   Max.-Head-Change                         Max.-Flux-Residual
  Residual-Control   Outer-Iter.   Inner-Iter.     Column Row Layer    Maximum-Head-Change  Column Row Layer    Maximum-Flux-Residual          L2-NORM 
          0                 1           2             4    7     1      -0.1530422536E-01       4    7    1        -0.8056604569E+00      0.1793218550E+01
          0                 2           2             4    7     1       0.1488677001E-02       4    7    1         0.8056558968E-01      0.1793214715E+00
          0                 3           1             4    7     1      -0.1013734523E-03       4    7    1        -0.5639598042E-02      0.1255251482E-01
          0                 4           1             4    7     1       0.4033744845E-05       4    7    1         0.2306598428E-03      0.5134001824E-03

    ------------------------------------------------
       NWT REQUIRED            4 OUTER ITERATIONS 
       AND A TOTAL OF          6 INNER ITERATIONS.
    ------------------------------------------------

 NO OUTPUT CONTROL FOR STRESS PERIOD   38   TIME STEP   29
 
 SOLVING FOR HEAD 
                                                   Max.-Head-Change                         Max.-Flux-Residual
  Residual-Control   Outer-Iter.   Inner-Iter.     Column Row Layer    Maximum-Head-Change  Column Row Layer    Maximum-Flux-Residual          L2-NORM 
          0                 1           2             4    7     1      -0.1510671837E-01       4    7    1        -0.7952128057E+00      0.1773947815E+01
          0                 2           2             4    7     1       0.1469493951E-02       4    7    1         0.7952083809E-01      0.1774114428E+00
          0                 3           1             4    7     1      -0.1000671560E-03       4    7    1        -0.5566465262E-02      0.1241880462E-01
          0                 4           1             4    7     1       0.3981766576E-05       4    7    1         0.2276687217E-03      0.5079237839E-03

    ------------------------------------------------
       NWT REQUIRED            4 OUTER ITERATIONS 
       AND A TOTAL OF          6 INNER ITERATIONS.
    ------------------------------------------------

 NO OUTPUT CONTROL FOR STRESS PERIOD   38   TIME STEP   30



 STREAM LISTING     PERIOD     38   STEP       30

 LAYER ROW COL. STREAM  RCH.  FLOW INTO     FLOW TO   FLOW OUT OF   OVRLND.     DIRECT     STREAM       STREAM     STREAM     STREAM   STREAMBED  STREAMBED
                SEG.NO.  NO.  STRM. RCH.    AQUIFER    STRM. RCH.    RUNOFF     PRECIP       ET          HEAD       DEPTH      WIDTH   CONDCTNC.   GRADIENT

   1    1    1     1     1    1.4250E+01  1.8168E-01   1.4068E+01  0.000E+00  0.000E+00  0.000E+00  1.09404E+03  9.953E-01  1.011E+01  4.547E-02  1.332E+00
   1    2    2     1     2    1.4068E+01  2.7999E-01   1.3788E+01  0.000E+00  0.000E+00  0.000E+00  1.08905E+03  9.906E-01  1.002E+01  7.016E-02  1.330E+00
   1    3    3     1     3    1.3788E+01  2.3744E-01   1.3550E+01  0.000E+00  0.000E+00  0.000E+00  1.08340E+03  9.852E-01  9.930E+00  5.958E-02  1.328E+00
   1    3    4     1     4    1.3550E+01  2.1755E-01   1.3333E+01  0.000E+00  0.000E+00  0.000E+00  1.07839E+03  9.805E-01  9.847E+00  5.465E-02  1.327E+00
   1    4    5     2     1    1.1333E+01  2.9214E-01   1.1041E+01  0.000E+00  0.000E+00  0.000E+00  1.07268E+03  7.454E-01  1.200E+01  7.800E-02  1.248E+00
   1    5    6     2     2    1.1041E+01  2.2410E-01   1.0817E+01  0.000E+00  0.000E+00  0.000E+00  1.06724E+03  7.350E-01  1.200E+01  6.000E-02  1.245E+00
   1    6    6     2     3    1.0817E+01  2.2356E-01   1.0593E+01  0.000E+00  0.000E+00  0.000E+00  1.06252E+03  7.259E-01  1.200E+01  6.000E-02  1.242E+00
   1    7    6     2     4    1.0593E+01  2.2301E-01   1.0370E+01  0.000E+00  0.000E+00  0.000E+00  1.05779E+03  7.168E-01  1.200E+01  6.000E-02  1.239E+00
   1    8    6     2     5    1.0370E+01  2.2246E-01   1.0148E+01  0.000E+00  0.000E+00  0.000E+00  1.05307E+03  7.076E-01  1.200E+01  6.000E-02  1.236E+00
   1    3    5     3     1    2.0000E+00  2.8252E-01   1.7175E+00  0.000E+00  0.000E+00  0.000E+00  1.07555E+03  1.909E+00  9.636E+00  7.227E-02  1.955E+00
   1    3    6     3     2    1.7175E+00  2.4905E-01   1.4684E+00  0.000E+00  0.000E+00  0.000E+00  1.07264E+03  1.727E+00  8.909E+00  6.682E-02  1.864E+00
   1    3    7     3     3    1.4684E+00  1.9718E-01   1.2712E+00  0.000E+00  0.000E+00  0.000E+00  1.06987E+03  1.555E+00  8.218E+00  5.547E-02  1.777E+00
   1    4    8     3     4    1.2712E+00  2.2567E-01   1.0456E+00  0.000E+00  0.000E+00  0.000E+00  1.06682E+03  1.364E+00  7.455E+00  6.709E-02  1.682E+00
   1    5    8     3     5    1.0456E+00  1.5790E-01   8.8768E-01  0.000E+00  0.000E+00  0.000E+00  1.06362E+03  1.164E+00  6.655E+00  4.991E-02  1.582E+00
   1    6    8     3     6    8.8768E-01  5.5980E-02   8.3170E-01  0.000E+00  0.000E+00  0.000E+00  1.06158E+03  1.036E+00  6.145E+00  1.844E-02  1.518E+00
   1    5   10     4     1    1.0000E+01  9.0919E-02   9.9091E+00  0.000E+00  0.000E+00  0.000E+00  1.07836E+03  6.368E-01  1.000E+01  2.500E-02  1.212E+00
   1    5    9     4     2    9.9091E+00  1.8158E-01   9.7275E+00  0.000E+00  0.000E+00  0.000E+00  1.07154E+03  6.315E-01  1.000E+01  5.000E-02  1.211E+00
   1    6    8     4     3    9.7275E+00  1.2689E-01   9.6006E+00  0.000E+00  0.000E+00  0.000E+00  1.06381E+03  6.256E-01  1.000E+01  3.500E-02  1.209E+00
   1    6    8     5     1    1.0432E+01  2.2686E-01   1.0205E+01  0.000E+00  0.000E+00  0.000E+00  1.05868E+03  6.790E-01  1.542E+01  6.166E-02  1.226E+00
   1    7    7     5     2    1.0205E+01  2.7894E-01   9.9265E+00  0.000E+00  0.000E+00  0.000E+00  1.05417E+03  6.732E-01  1.519E+01  7.594E-02  1.224E+00
   1    8    7     5     3    9.9265E+00  1.9221E-01   9.7343E+00  0.000E+00  0.000E+00  0.000E+00  1.04992E+03  6.676E-01  1.497E+01  5.241E-02  1.223E+00
   1    8    6     5     4    9.7343E+00  1.3577E-01   9.5985E+00  0.000E+00  0.000E+00  0.000E+00  1.04691E+03  6.637E-01  1.482E+01  3.706E-02  1.221E+00
   1    9    6     6     1    1.9746E+01  2.4336E-01   1.9503E+01  0.000E+00  0.000E+00  0.000E+00  1.04378E+03  1.056E+00  1.200E+01  6.000E-02  1.352E+00
   1   10    7     6     2    1.9503E+01  2.4289E-01   1.9260E+01  0.000E+00  0.000E+00  0.000E+00  1.03923E+03  1.048E+00  1.200E+01  6.000E-02  1.349E+00
   1   11    7     6     3    1.9260E+01  2.4241E-01   1.9018E+01  0.000E+00  0.000E+00  0.000E+00  1.03468E+03  1.040E+00  1.200E+01  6.000E-02  1.347E+00
   1   12    7     6     4    1.9018E+01  2.4194E-01   1.8776E+01  0.000E+00  0.000E+00  0.000E+00  1.03012E+03  1.032E+00  1.200E+01  6.000E-02  1.344E+00
   1   13    7     6     5    1.8776E+01 -3.1050E-02   1.8807E+01  0.000E+00  0.000E+00  0.000E+00  1.02694E+03  1.029E+00  1.200E+01  2.400E-01 -4.313E-02
   1   14    9     7     1    1.5000E+02  1.3475E+00   1.4865E+02  0.000E+00  0.000E+00  0.000E+00  1.03987E+03  2.288E+00  5.529E+01  5.593E-01  8.031E-01
   1   13    8     7     2    1.4865E+02  1.8474E+00   1.4681E+02  0.000E+00  0.000E+00  0.000E+00  1.03478E+03  2.279E+00  5.526E+01  6.148E-01  1.002E+00
   1   13    7     7     3    1.4681E+02  1.4645E+00   1.4534E+02  0.000E+00  0.000E+00  0.000E+00  1.02969E+03  2.270E+00  5.522E+01  5.584E-01  8.741E-01
   1   13    6     8     1    1.6415E+02  8.7253E-01   1.6327E+02  0.000E+00  0.000E+00  0.000E+00  1.02479E+03  2.911E+00  4.221E+01  4.301E-01  6.762E-01
   1   13    5     8     2    1.6327E+02  1.2348E-01   1.6315E+02  0.000E+00  0.000E+00  0.000E+00  1.01853E+03  2.907E+00  4.216E+01  4.296E-01  9.581E-02
   1   13    4     8     3    1.6315E+02 -2.6375E+00   1.6579E+02  0.000E+00  0.000E+00  0.000E+00  1.01229E+03  2.916E+00  4.228E+01  4.308E+00 -2.041E-01
   1   13    3     8     4    1.6579E+02 -3.7221E+00   1.6951E+02  0.000E+00  0.000E+00  0.000E+00  1.00606E+03  2.937E+00  4.258E+01  4.339E+00 -2.859E-01
   1   13    2     8     5    1.6951E+02 -2.5894E+00   1.7210E+02  0.000E+00  0.000E+00  0.000E+00  9.99832E+02  2.957E+00  4.288E+01  4.370E+00 -1.975E-01
   1   13    1     8     6    1.7210E+02 -1.9872E+00   1.7409E+02  0.000E+00  0.000E+00  0.000E+00  9.94847E+02  2.972E+00  4.310E+01  2.635E+00 -2.514E-01
   1    8    6     9     1    0.0000E+00  0.0000E+00   0.0000E+00  0.000E+00  0.000E+00  0.000E+00  1.07875E+03  0.000E+00  4.000E+00  0.000E+00  1.000E+00
   1    8    5     9     2    0.0000E+00  0.0000E+00   0.0000E+00  0.000E+00  0.000E+00  0.000E+00  1.07825E+03  0.000E+00  4.000E+00  0.000E+00  1.000E+00





UNSATURATED ZONE PACKAGE VOLUMETRIC BUDGET FOR  TIME STEP    30 STRESS PERIOD   38
  ------------------------------------------------------------------------------



     CUMULATIVE VOLUMES      L**3       RATES FOR THIS TIME STEP      L**3/T
     ------------------                 ------------------------

           IN:                                      IN:
           ---                                      ---
        INFILTRATION =  4271686871.4932          INFILTRATION =           0.8475

          OUT:                                     OUT:
          ----                                     ----
              UZF ET =  1291534999.6350                UZF ET =           0.7500
        UZF RECHARGE =  2716293710.6995          UZF RECHARGE =       0.0000E+00

            IN - OUT =   263858161.1587              IN - OUT =       9.7500E-02

          STORAGE:                                 STORAGE:
          --------                                 --------
      STORAGE CHANGE =   263851026.9271        STORAGE CHANGE =       9.7500E-02

 PERCENT DISCREPANCY IS DIFFERENCE BETWEEN IN-OUT MINUS CHANGE IN STORAGE
 DIVIDED BY THE AVERAGE OF IN AND OUT TIMES 100

 PERCENT DISCREPANCY =           0.00     PERCENT DISCREPANCY =           0.00






1
  VOLUMETRIC BUDGET FOR AGRICULTURAL FIELDS AT  END OF TIME STEP   30, STRESS PERIOD  38
  ------------------------------------------------------------------------------

     CUMULATIVE VOLUMES      L**3       RATES FOR THIS TIME STEP      L**3/T
     ------------------                 ------------------------

           IN:                                      IN:
           ---                                      ---
           AG WELLS      =  2651762432.0000             AG WELLS      =           0.0000
      DIVERSION SEGMENTS =  1537368064.0000        DIVERSION SEGMENTS =           0.0000
           GW IRRIGATION =           0.0000             GW IRRIGATION =           0.0000
           SW IRRIGATION =           0.0000             SW IRRIGATION =           0.0000
        SYSTEM LOSSES GW =           0.0000          SYSTEM LOSSES GW =           0.0000
        SYSTEM LOSSES SW =           0.0000          SYSTEM LOSSES SW =           0.0000

                TOTAL IN =  4189130496.0000                  TOTAL IN =           0.0000

          OUT:                                     OUT:
          ----                                     ----
           AG WELLS      =           0.0000             AG WELLS      =           0.0000
      DIVERSION SEGMENTS =           0.0000        DIVERSION SEGMENTS =           0.0000
           GW IRRIGATION =  2651762432.0000             GW IRRIGATION =           0.0000
           SW IRRIGATION =  1537396352.0000             SW IRRIGATION =           0.0000
        SYSTEM LOSSES GW =           0.0000          SYSTEM LOSSES GW =           0.0000
        SYSTEM LOSSES SW =           0.0000          SYSTEM LOSSES SW =           0.0000

               TOTAL OUT =  4189158912.0000                 TOTAL OUT =           0.0000

                IN - OUT =      -28416.0000                  IN - OUT =           0.0000

     PERCENT DISCREPANCY =          -0.00         PERCENT DISCREPANCY =           0.00



1
  VOLUMETRIC BUDGET FOR ENTIRE MODEL AT END OF TIME STEP   30, STRESS PERIOD  38
  ------------------------------------------------------------------------------

     CUMULATIVE VOLUMES      L**3       RATES FOR THIS TIME STEP      L**3/T
     ------------------                 ------------------------

           IN:                                      IN:
           ---                                      ---
             STORAGE     =  2651209216.0000               STORAGE     =           5.3224
       CONSTANT HEAD     =           0.0000         CONSTANT HEAD     =           0.0000
     HEAD DEP BOUNDS     =    27873394.0000       HEAD DEP BOUNDS     =           0.2866
      STREAM LEAKAGE     =  1162978048.0000        STREAM LEAKAGE     =          11.1294
        UZF RECHARGE     =  2716292608.0000          UZF RECHARGE     =           0.0000
               GW ET     =           0.0000                 GW ET     =           0.0000
     SURFACE LEAKAGE     =           0.0000       SURFACE LEAKAGE     =           0.0000
           AG WELLS      =           0.0000             AG WELLS      =           0.0000

                TOTAL IN =  6558353408.0000                  TOTAL IN =          16.7383

          OUT:                                     OUT:
          ----                                     ----
             STORAGE     =  2829866752.0000               STORAGE     =           5.4822
       CONSTANT HEAD     =           0.0000         CONSTANT HEAD     =           0.0000
     HEAD DEP BOUNDS     =    28201676.0000       HEAD DEP BOUNDS     =           0.2889
      STREAM LEAKAGE     =  1048408896.0000        STREAM LEAKAGE     =          10.9672
        UZF RECHARGE     =           0.0000          UZF RECHARGE     =           0.0000
               GW ET     =      151061.6094                 GW ET     =           0.0000
     SURFACE LEAKAGE     =           0.0000       SURFACE LEAKAGE     =           0.0000
           AG WELLS      =  2651762432.0000             AG WELLS      =           0.0000

               TOTAL OUT =  6558390784.0000                 TOTAL OUT =          16.7383

                IN - OUT =      -37376.0000                  IN - OUT =       3.8147E-06

     PERCENT DISCREPANCY =          -0.00         PERCENT DISCREPANCY =           0.00






         TIME SUMMARY AT END OF TIME STEP   30 IN STRESS PERIOD   38
                    SECONDS     MINUTES      HOURS       DAYS        YEARS
                    -----------------------------------------------------------
   TIME STEP LENGTH  87667.      1461.1      24.352      1.0147     2.77799E-03
 STRESS PERIOD TIME 2.63000E+06  43833.      730.56      30.440     8.33397E-02
         TOTAL TIME 9.73959E+07 1.62326E+06  27054.      1127.3      3.0863    
1
1
                            STRESS PERIOD NO.   39, LENGTH =   2630000.    
                            -----------------------------------------------

                              NUMBER OF TIME STEPS =    30

                               MULTIPLIER FOR DELT =     1.000

                            INITIAL TIME STEP SIZE =   87666.66    

 REUSING NON-PARAMETER GHB CELLS FROM LAST STRESS PERIOD

      2 GHB CELLS

 REUSING STREAM SEGMENT DATA FROM LAST STRESS PERIOD



            AREAL INFILTRATION RATE
 READING ON UNIT   19 WITH FORMAT: (FREE)              

            1           2           3           4           5           6           7           8           9          10
 ........................................................................................................................
   1   1.0000E-10  2.0000E-10   0.000       0.000       0.000       0.000       0.000       0.000       0.000       0.000    
   2   2.0000E-10  1.0000E-10  2.0000E-10   0.000       0.000      8.0000E-10  8.0000E-10  5.0000E-10   0.000       0.000    
   3    0.000      5.0000E-10  1.0000E-10  1.0000E-10  8.0000E-10  8.0000E-10  5.0000E-10  5.0000E-10   0.000       0.000    
   4   8.0000E-10  5.0000E-10  1.0000E-10  1.0000E-10  1.0000E-10  1.0000E-10  1.0000E-10  1.0000E-10  2.0000E-10   0.000    
   5   8.0000E-10  5.0000E-10  1.0000E-10  1.0000E-10  1.0000E-10  1.0000E-10  1.0000E-10  1.0000E-10  1.0000E-10  1.0000E-10
   6   8.0000E-10  5.0000E-10  5.0000E-10  2.0000E-10  2.0000E-10  1.0000E-10  1.0000E-10  1.0000E-10  1.0000E-10  5.0000E-10
   7   8.0000E-10  5.0000E-10  5.0000E-10  2.0000E-10  2.0000E-10  1.0000E-10  1.0000E-10  2.0000E-10  2.0000E-10   0.000    
   8    0.000      5.0000E-10  5.0000E-10  2.0000E-10  2.0000E-10  1.0000E-10  1.0000E-10  2.0000E-10  5.0000E-10   0.000    
   9    0.000      5.0000E-10  5.0000E-10  2.0000E-10  2.0000E-10  1.0000E-10  1.0000E-10  2.0000E-10  5.0000E-10   0.000    
  10    0.000      5.0000E-10  5.0000E-10  2.0000E-10  2.0000E-10  1.0000E-10  1.0000E-10  2.0000E-10  5.0000E-10  8.0000E-10
  11    0.000      1.0000E-10  1.0000E-10  1.0000E-10  1.0000E-10  1.0000E-10  1.0000E-10  2.0000E-10  5.0000E-10   0.000    
  12   1.0000E-10  1.0000E-10  1.0000E-10  1.0000E-10  1.0000E-10  1.0000E-10  1.0000E-10  1.0000E-10  2.0000E-10   0.000    
  13   1.0000E-10  1.0000E-10  2.0000E-10  2.0000E-10  2.0000E-10  2.0000E-10  2.0000E-10  1.0000E-10  1.0000E-10   0.000    
  14    0.000      2.0000E-10  5.0000E-10  5.0000E-10  5.0000E-10  5.0000E-10  5.0000E-10  2.0000E-10  1.0000E-10   0.000    
  15    0.000       0.000      8.0000E-10  8.0000E-10  8.0000E-10  8.0000E-10   0.000       0.000       0.000       0.000    

                  ET RATE =  5.000000E-10

 USING ET EXTINCTION DEPTH FROM PREVIOUS STRESS PERIOD. CURRENT PERIOD IS:      39

 USING EXTINCTION WATER CONTENT FROM PREVIOUS STRESS PERIOD. CURRENT PERIOD IS:      39

 USING AIR ENTRY PRESSURE FROM PREVIOUS STRESS PERIOD. CURRENT PERIOD IS:      39

 USING ROOT PRESSURE HEAD FROM PREVIOUS STRESS PERIOD. CURRENT PERIOD IS:      39

 USING ROOT ACTIVITY FROM PREVIOUS STRESS PERIOD. CURRENT PERIOD IS:      39

 PROCESSING AG STRESS PERIOD DATA

 READING AG STRESS PERIOD DATA

 READING IRRIGATION SEGMENT

 READING IRRIGATION WELL

 READING SUPPLEMENTAL WELL

 END PROCESSING AG STRESS PERIOD DATA OPTIONS
 
 SOLVING FOR HEAD 
                                                   Max.-Head-Change                         Max.-Flux-Residual
  Residual-Control   Outer-Iter.   Inner-Iter.     Column Row Layer    Maximum-Head-Change  Column Row Layer    Maximum-Flux-Residual          L2-NORM 
          0                 1           2             4    7     1      -0.1491236959E-01       4    7    1        -0.7849407992E+00      0.1754962684E+01
          0                 2           2             4    7     1       0.1450560516E-02       4    7    1         0.7849365025E-01      0.1754959055E+00
          0                 3           1             4    7     1      -0.9877785705E-04       4    7    1        -0.5494561948E-02      0.1228472397E-01

    ------------------------------------------------
       NWT REQUIRED            3 OUTER ITERATIONS 
       AND A TOTAL OF          5 INNER ITERATIONS.
    ------------------------------------------------

 NO OUTPUT CONTROL FOR STRESS PERIOD   39   TIME STEP    1
 
 SOLVING FOR HEAD 
                                                   Max.-Head-Change                         Max.-Flux-Residual
  Residual-Control   Outer-Iter.   Inner-Iter.     Column Row Layer    Maximum-Head-Change  Column Row Layer    Maximum-Flux-Residual          L2-NORM 
          0                 1           2             4    7     1      -0.1472141776E-01       4    7    1        -0.7748471141E+00      0.1736232476E+01
          0                 2           2             4    7     1       0.1431986294E-02       4    7    1         0.7748429417E-01      0.1736228863E+00
          0                 3           1             4    7     1      -0.9751301970E-04       4    7    1        -0.5423906886E-02      0.1215361938E-01

    ------------------------------------------------
       NWT REQUIRED            3 OUTER ITERATIONS 
       AND A TOTAL OF          5 INNER ITERATIONS.
    ------------------------------------------------

 NO OUTPUT CONTROL FOR STRESS PERIOD   39   TIME STEP    2
 
 SOLVING FOR HEAD 
                                                   Max.-Head-Change                         Max.-Flux-Residual
  Residual-Control   Outer-Iter.   Inner-Iter.     Column Row Layer    Maximum-Head-Change  Column Row Layer    Maximum-Flux-Residual          L2-NORM 
          0                 1           2             4    7     1      -0.1453381969E-01       4    7    1        -0.7649314866E+00      0.1719488961E+01
          0                 2           2             4    7     1       0.1413738297E-02       4    7    1         0.7649274347E-01      0.1719455667E+00
          0                 3           1             4    7     1      -0.9627039675E-04       4    7    1        -0.5354498181E-02      0.1203569513E-01

    ------------------------------------------------
       NWT REQUIRED            3 OUTER ITERATIONS 
       AND A TOTAL OF          5 INNER ITERATIONS.
    ------------------------------------------------

 NO OUTPUT CONTROL FOR STRESS PERIOD   39   TIME STEP    3
 
 SOLVING FOR HEAD 
                                                   Max.-Head-Change                         Max.-Flux-Residual
  Residual-Control   Outer-Iter.   Inner-Iter.     Column Row Layer    Maximum-Head-Change  Column Row Layer    Maximum-Flux-Residual          L2-NORM 
          0                 1           2             4    7     1      -0.1434922216E-01       4    7    1        -0.7551748482E+00      0.1702484631E+01
          0                 2           2             4    7     1       0.1395782163E-02       4    7    1         0.7551709126E-01      0.1702429532E+00
          0                 3           1             4    7     1      -0.9504764938E-04       4    7    1        -0.5286202410E-02      0.1191655254E-01

    ------------------------------------------------
       NWT REQUIRED            3 OUTER ITERATIONS 
       AND A TOTAL OF          5 INNER ITERATIONS.
    ------------------------------------------------

 NO OUTPUT CONTROL FOR STRESS PERIOD   39   TIME STEP    4
 
 SOLVING FOR HEAD 
                                                   Max.-Head-Change                         Max.-Flux-Residual
  Residual-Control   Outer-Iter.   Inner-Iter.     Column Row Layer    Maximum-Head-Change  Column Row Layer    Maximum-Flux-Residual          L2-NORM 
          0                 1           2             4    7     1      -0.1416785510E-01       4    7    1        -0.7455886887E+00      0.1684549517E+01
          0                 2           2             4    7     1       0.1378140262E-02       4    7    1         0.7455848658E-01      0.1684498994E+00
          0                 3           1             4    7     1      -0.9384629964E-04       4    7    1        -0.5219099939E-02      0.1179103580E-01

    ------------------------------------------------
       NWT REQUIRED            3 OUTER ITERATIONS 
       AND A TOTAL OF          5 INNER ITERATIONS.
    ------------------------------------------------

 NO OUTPUT CONTROL FOR STRESS PERIOD   39   TIME STEP    5
 
 SOLVING FOR HEAD 
                                                   Max.-Head-Change                         Max.-Flux-Residual
  Residual-Control   Outer-Iter.   Inner-Iter.     Column Row Layer    Maximum-Head-Change  Column Row Layer    Maximum-Flux-Residual          L2-NORM 
          0                 1           2             4    7     1      -0.1398963855E-01       4    7    1        -0.7361700282E+00      0.1666895177E+01
          0                 2           2             4    7     1       0.1360804813E-02       4    7    1         0.7361663146E-01      0.1666850181E+00
          0                 3           1             4    7     1      -0.9266581832E-04       4    7    1        -0.5153169950E-02      0.1166759958E-01

    ------------------------------------------------
       NWT REQUIRED            3 OUTER ITERATIONS 
       AND A TOTAL OF          5 INNER ITERATIONS.
    ------------------------------------------------

 NO OUTPUT CONTROL FOR STRESS PERIOD   39   TIME STEP    6
 
 SOLVING FOR HEAD 
                                                   Max.-Head-Change                         Max.-Flux-Residual
  Residual-Control   Outer-Iter.   Inner-Iter.     Column Row Layer    Maximum-Head-Change  Column Row Layer    Maximum-Flux-Residual          L2-NORM 
          0                 1           2             4    7     1      -0.1381423465E-01       4    7    1        -0.7268998189E+00      0.1649512835E+01
          0                 2           2             4    7     1       0.1343742954E-02       4    7    1         0.7268962109E-01      0.1649470287E+00
          0                 3           1             4    7     1      -0.9150396722E-04       4    7    1        -0.5088279081E-02      0.1154587424E-01

    ------------------------------------------------
       NWT REQUIRED            3 OUTER ITERATIONS 
       AND A TOTAL OF          5 INNER ITERATIONS.
    ------------------------------------------------

 NO OUTPUT CONTROL FOR STRESS PERIOD   39   TIME STEP    7
 
 SOLVING FOR HEAD 
                                                   Max.-Head-Change                         Max.-Flux-Residual
  Residual-Control   Outer-Iter.   Inner-Iter.     Column Row Layer    Maximum-Head-Change  Column Row Layer    Maximum-Flux-Residual          L2-NORM 
          0                 1           2             4    7     1      -0.1364186672E-01       4    7    1        -0.7177903462E+00      0.1632404621E+01
          0                 2           2             4    7     1       0.1326976407E-02       4    7    1         0.7177868408E-01      0.1632366752E+00
          0                 3           1             4    7     1      -0.9036222625E-04       4    7    1        -0.5024513380E-02      0.1142632427E-01

    ------------------------------------------------
       NWT REQUIRED            3 OUTER ITERATIONS 
       AND A TOTAL OF          5 INNER ITERATIONS.
    ------------------------------------------------

 NO OUTPUT CONTROL FOR STRESS PERIOD   39   TIME STEP    8
 
 SOLVING FOR HEAD 
                                                   Max.-Head-Change                         Max.-Flux-Residual
  Residual-Control   Outer-Iter.   Inner-Iter.     Column Row Layer    Maximum-Head-Change  Column Row Layer    Maximum-Flux-Residual          L2-NORM 
          0                 1           2             4    7     1      -0.1347219167E-01       4    7    1        -0.7088233866E+00      0.1615549333E+01
          0                 2           2             4    7     1       0.1310471799E-02       4    7    1         0.7088199807E-01      0.1615512193E+00
          0                 3           1             4    7     1      -0.8923832168E-04       4    7    1        -0.4961745221E-02      0.1130841537E-01

    ------------------------------------------------
       NWT REQUIRED            3 OUTER ITERATIONS 
       AND A TOTAL OF          5 INNER ITERATIONS.
    ------------------------------------------------

 NO OUTPUT CONTROL FOR STRESS PERIOD   39   TIME STEP    9
 
 SOLVING FOR HEAD 
                                                   Max.-Head-Change                         Max.-Flux-Residual
  Residual-Control   Outer-Iter.   Inner-Iter.     Column Row Layer    Maximum-Head-Change  Column Row Layer    Maximum-Flux-Residual          L2-NORM 
          0                 1           2             4    7     1      -0.1330570715E-01       4    7    1        -0.7000258521E+00      0.1598967521E+01
          0                 2           2             4    7     1       0.1294277537E-02       4    7    1         0.7000225422E-01      0.1598906826E+00
          0                 3           1             4    7     1      -0.8813555157E-04       4    7    1        -0.4900163056E-02      0.1119211538E-01

    ------------------------------------------------
       NWT REQUIRED            3 OUTER ITERATIONS 
       AND A TOTAL OF          5 INNER ITERATIONS.
    ------------------------------------------------

 NO OUTPUT CONTROL FOR STRESS PERIOD   39   TIME STEP   10
 
 SOLVING FOR HEAD 
                                                   Max.-Head-Change                         Max.-Flux-Residual
  Residual-Control   Outer-Iter.   Inner-Iter.     Column Row Layer    Maximum-Head-Change  Column Row Layer    Maximum-Flux-Residual          L2-NORM 
          0                 1           2             4    7     1      -0.1314178860E-01       4    7    1        -0.6913639456E+00      0.1582633111E+01
          0                 2           2             4    7     1       0.1278332870E-02       4    7    1         0.6913607287E-01      0.1582602770E+00
          0                 3           1             4    7     1      -0.8704977743E-04       4    7    1        -0.4839530233E-02      0.1107799526E-01

    ------------------------------------------------
       NWT REQUIRED            3 OUTER ITERATIONS 
       AND A TOTAL OF          5 INNER ITERATIONS.
    ------------------------------------------------

 NO OUTPUT CONTROL FOR STRESS PERIOD   39   TIME STEP   11
 
 SOLVING FOR HEAD 
                                                   Max.-Head-Change                         Max.-Flux-Residual
  Residual-Control   Outer-Iter.   Inner-Iter.     Column Row Layer    Maximum-Head-Change  Column Row Layer    Maximum-Flux-Residual          L2-NORM 
          0                 1           2             4    7     1      -0.1298066114E-01       4    7    1        -0.6828499829E+00      0.1566552515E+01
          0                 2           2             4    7     1       0.1262659696E-02       4    7    1         0.6828468559E-01      0.1566524449E+00
          0                 3           1             4    7     1      -0.8598249103E-04       4    7    1        -0.4779933023E-02      0.1096548056E-01

    ------------------------------------------------
       NWT REQUIRED            3 OUTER ITERATIONS 
       AND A TOTAL OF          5 INNER ITERATIONS.
    ------------------------------------------------

 NO OUTPUT CONTROL FOR STRESS PERIOD   39   TIME STEP   12
 
 SOLVING FOR HEAD 
                                                   Max.-Head-Change                         Max.-Flux-Residual
  Residual-Control   Outer-Iter.   Inner-Iter.     Column Row Layer    Maximum-Head-Change  Column Row Layer    Maximum-Flux-Residual          L2-NORM 
          0                 1           2             4    7     1      -0.1282199096E-01       4    7    1        -0.6744658390E+00      0.1550703432E+01
          0                 2           2             4    7     1       0.1247225545E-02       4    7    1         0.6744627998E-01      0.1550710615E+00
          0                 3           1             4    7     1      -0.8493148136E-04       4    7    1        -0.4721244525E-02      0.1085475500E-01

    ------------------------------------------------
       NWT REQUIRED            3 OUTER ITERATIONS 
       AND A TOTAL OF          5 INNER ITERATIONS.
    ------------------------------------------------

 NO OUTPUT CONTROL FOR STRESS PERIOD   39   TIME STEP   13
 
 SOLVING FOR HEAD 
                                                   Max.-Head-Change                         Max.-Flux-Residual
  Residual-Control   Outer-Iter.   Inner-Iter.     Column Row Layer    Maximum-Head-Change  Column Row Layer    Maximum-Flux-Residual          L2-NORM 
          0                 1           2             4    7     1      -0.1266627612E-01       4    7    1        -0.6662389006E+00      0.1535094952E+01
          0                 2           2             4    7     1       0.1232078861E-02       4    7    1         0.6662359457E-01      0.1535069941E+00
          0                 3           1             4    7     1      -0.8390004670E-04       4    7    1        -0.4663656424E-02      0.1074529923E-01

    ------------------------------------------------
       NWT REQUIRED            3 OUTER ITERATIONS 
       AND A TOTAL OF          5 INNER ITERATIONS.
    ------------------------------------------------

 NO OUTPUT CONTROL FOR STRESS PERIOD   39   TIME STEP   14
 
 SOLVING FOR HEAD 
                                                   Max.-Head-Change                         Max.-Flux-Residual
  Residual-Control   Outer-Iter.   Inner-Iter.     Column Row Layer    Maximum-Head-Change  Column Row Layer    Maximum-Flux-Residual          L2-NORM 
          0                 1           2             4    7     1      -0.1251289580E-01       4    7    1        -0.6581353992E+00      0.1519701092E+01
          0                 2           2             4    7     1       0.1217159261E-02       4    7    1         0.6581325260E-01      0.1519677599E+00
          0                 3           1             4    7     1      -0.8288407650E-04       4    7    1        -0.4606932394E-02      0.1063757505E-01

    ------------------------------------------------
       NWT REQUIRED            3 OUTER ITERATIONS 
       AND A TOTAL OF          5 INNER ITERATIONS.
    ------------------------------------------------

 NO OUTPUT CONTROL FOR STRESS PERIOD   39   TIME STEP   15
 
 SOLVING FOR HEAD 
                                                   Max.-Head-Change                         Max.-Flux-Residual
  Residual-Control   Outer-Iter.   Inner-Iter.     Column Row Layer    Maximum-Head-Change  Column Row Layer    Maximum-Flux-Residual          L2-NORM 
          0                 1           2             4    7     1      -0.1236208188E-01       4    7    1        -0.6501678399E+00      0.1504540998E+01
          0                 2           2             4    7     1       0.1202489296E-02       4    7    1         0.6501650460E-01      0.1504518526E+00
          0                 3           1             4    7     1      -0.8188510489E-04       4    7    1        -0.4551159925E-02      0.1053144272E-01

    ------------------------------------------------
       NWT REQUIRED            3 OUTER ITERATIONS 
       AND A TOTAL OF          5 INNER ITERATIONS.
    ------------------------------------------------

 NO OUTPUT CONTROL FOR STRESS PERIOD   39   TIME STEP   16
 
 SOLVING FOR HEAD 
                                                   Max.-Head-Change                         Max.-Flux-Residual
  Residual-Control   Outer-Iter.   Inner-Iter.     Column Row Layer    Maximum-Head-Change  Column Row Layer    Maximum-Flux-Residual          L2-NORM 
          0                 1           2             4    7     1      -0.1221405372E-01       4    7    1        -0.6423482435E+00      0.1489618425E+01
          0                 2           2             4    7     1       0.1188090307E-02       4    7    1         0.6423455265E-01      0.1489597415E+00
          0                 3           1             4    7     1      -0.8090458575E-04       4    7    1        -0.4496423192E-02      0.1042702802E-01

    ------------------------------------------------
       NWT REQUIRED            3 OUTER ITERATIONS 
       AND A TOTAL OF          5 INNER ITERATIONS.
    ------------------------------------------------

 NO OUTPUT CONTROL FOR STRESS PERIOD   39   TIME STEP   17
 
 SOLVING FOR HEAD 
                                                   Max.-Head-Change                         Max.-Flux-Residual
  Residual-Control   Outer-Iter.   Inner-Iter.     Column Row Layer    Maximum-Head-Change  Column Row Layer    Maximum-Flux-Residual          L2-NORM 
          0                 1           2             4    7     1      -0.1206819218E-01       4    7    1        -0.6346432943E+00      0.1474900588E+01
          0                 2           2             4    7     1       0.1173902067E-02       4    7    1         0.6346406516E-01      0.1474880509E+00
          0                 3           1             4    7     1      -0.7993841848E-04       4    7    1        -0.4442488994E-02      0.1032399510E-01

    ------------------------------------------------
       NWT REQUIRED            3 OUTER ITERATIONS 
       AND A TOTAL OF          5 INNER ITERATIONS.
    ------------------------------------------------

 NO OUTPUT CONTROL FOR STRESS PERIOD   39   TIME STEP   18
 
 SOLVING FOR HEAD 
                                                   Max.-Head-Change                         Max.-Flux-Residual
  Residual-Control   Outer-Iter.   Inner-Iter.     Column Row Layer    Maximum-Head-Change  Column Row Layer    Maximum-Flux-Residual          L2-NORM 
          0                 1           2             4    7     1      -0.1192445647E-01       4    7    1        -0.6270506839E+00      0.1460382489E+01
          0                 2           2             4    7     1       0.1159920571E-02       4    7    1         0.6270481136E-01      0.1459966157E+00
          0                 3           1             4    7     1      -0.7898632924E-04       4    7    1        -0.4389341130E-02      0.1021960794E-01

    ------------------------------------------------
       NWT REQUIRED            3 OUTER ITERATIONS 
       AND A TOTAL OF          5 INNER ITERATIONS.
    ------------------------------------------------

 NO OUTPUT CONTROL FOR STRESS PERIOD   39   TIME STEP   19
 
 SOLVING FOR HEAD 
                                                   Max.-Head-Change                         Max.-Flux-Residual
  Residual-Control   Outer-Iter.   Inner-Iter.     Column Row Layer    Maximum-Head-Change  Column Row Layer    Maximum-Flux-Residual          L2-NORM 
          0                 1           2             4    7     1      -0.1178335358E-01       4    7    1        -0.6195980913E+00      0.1446108285E+01
          0                 2           2             4    7     1       0.1146195249E-02       4    7    1         0.6195955906E-01      0.1446089898E+00
          0                 3           1             4    7     1      -0.7805168472E-04       4    7    1        -0.4337173377E-02      0.1012249270E-01

    ------------------------------------------------
       NWT REQUIRED            3 OUTER ITERATIONS 
       AND A TOTAL OF          5 INNER ITERATIONS.
    ------------------------------------------------

 NO OUTPUT CONTROL FOR STRESS PERIOD   39   TIME STEP   20
 
 SOLVING FOR HEAD 
                                                   Max.-Head-Change                         Max.-Flux-Residual
  Residual-Control   Outer-Iter.   Inner-Iter.     Column Row Layer    Maximum-Head-Change  Column Row Layer    Maximum-Flux-Residual          L2-NORM 
          0                 1           2             4    7     1      -0.1164454454E-01       4    7    1        -0.6122671082E+00      0.1432105193E+01
          0                 2           2             4    7     1       0.1132693017E-02       4    7    1         0.6122646753E-01      0.1432087688E+00
          0                 3           1             4    7     1      -0.7713223201E-04       4    7    1        -0.4285856882E-02      0.1002446744E-01

    ------------------------------------------------
       NWT REQUIRED            3 OUTER ITERATIONS 
       AND A TOTAL OF          5 INNER ITERATIONS.
    ------------------------------------------------

 NO OUTPUT CONTROL FOR STRESS PERIOD   39   TIME STEP   21
 
 SOLVING FOR HEAD 
                                                   Max.-Head-Change                         Max.-Flux-Residual
  Residual-Control   Outer-Iter.   Inner-Iter.     Column Row Layer    Maximum-Head-Change  Column Row Layer    Maximum-Flux-Residual          L2-NORM 
          0                 1           2             4    7     1      -0.1150798276E-01       4    7    1        -0.6050550631E+00      0.1418299779E+01
          0                 2           2             4    7     1       0.1119409376E-02       4    7    1         0.6050526959E-01      0.1418282972E+00
          0                 3           1             4    7     1      -0.7622766417E-04       4    7    1        -0.4235372935E-02      0.9927878538E-02

    ------------------------------------------------
       NWT REQUIRED            3 OUTER ITERATIONS 
       AND A TOTAL OF          5 INNER ITERATIONS.
    ------------------------------------------------

 NO OUTPUT CONTROL FOR STRESS PERIOD   39   TIME STEP   22
 
 SOLVING FOR HEAD 
                                                   Max.-Head-Change                         Max.-Flux-Residual
  Residual-Control   Outer-Iter.   Inner-Iter.     Column Row Layer    Maximum-Head-Change  Column Row Layer    Maximum-Flux-Residual          L2-NORM 
          0                 1           2             4    7     1      -0.1137334492E-01       4    7    1        -0.5979446422E+00      0.1404680703E+01
          0                 2           2             4    7     1       0.1106320339E-02       4    7    1         0.5979423387E-01      0.1404642821E+00
          0                 3           1             4    7     1      -0.7534360358E-04       4    7    1        -0.4185600362E-02      0.9838335056E-02

    ------------------------------------------------
       NWT REQUIRED            3 OUTER ITERATIONS 
       AND A TOTAL OF          5 INNER ITERATIONS.
    ------------------------------------------------

 NO OUTPUT CONTROL FOR STRESS PERIOD   39   TIME STEP   23
 
 SOLVING FOR HEAD 
                                                   Max.-Head-Change                         Max.-Flux-Residual
  Residual-Control   Outer-Iter.   Inner-Iter.     Column Row Layer    Maximum-Head-Change  Column Row Layer    Maximum-Flux-Residual          L2-NORM 
          0                 1           2             4    7     1      -0.1124114093E-01       4    7    1        -0.5909637839E+00      0.1391259784E+01
          0                 2           2             4    7     1       0.1093356549E-02       4    7    1         0.5909615418E-01      0.1390501988E+00
          0                 3           1             4    7     1      -0.7445356132E-04       4    7    1        -0.4136734717E-02      0.9733394895E-02

    ------------------------------------------------
       NWT REQUIRED            3 OUTER ITERATIONS 
       AND A TOTAL OF          5 INNER ITERATIONS.
    ------------------------------------------------

 NO OUTPUT CONTROL FOR STRESS PERIOD   39   TIME STEP   24
 
 SOLVING FOR HEAD 
                                                   Max.-Head-Change                         Max.-Flux-Residual
  Residual-Control   Outer-Iter.   Inner-Iter.     Column Row Layer    Maximum-Head-Change  Column Row Layer    Maximum-Flux-Residual          L2-NORM 
          0                 1           2             4    7     1      -0.1111132920E-01       4    7    1        -0.5840993225E+00      0.1378084141E+01
          0                 2           2             4    7     1       0.1080826089E-02       4    7    1         0.5840971429E-01      0.1378069112E+00
          0                 3           1             4    7     1      -0.7360028246E-04       4    7    1        -0.4088683838E-02      0.9646404968E-02

    ------------------------------------------------
       NWT REQUIRED            3 OUTER ITERATIONS 
       AND A TOTAL OF          5 INNER ITERATIONS.
    ------------------------------------------------

 NO OUTPUT CONTROL FOR STRESS PERIOD   39   TIME STEP   25
 
 SOLVING FOR HEAD 
                                                   Max.-Head-Change                         Max.-Flux-Residual
  Residual-Control   Outer-Iter.   Inner-Iter.     Column Row Layer    Maximum-Head-Change  Column Row Layer    Maximum-Flux-Residual          L2-NORM 
          0                 1           2             4    7     1      -0.1098355527E-01       4    7    1        -0.5773486526E+00      0.1365113082E+01
          0                 2           2             4    7     1       0.1068397257E-02       4    7    1         0.5773465320E-01      0.1365098563E+00
          0                 3           1             4    7     1      -0.7275392417E-04       4    7    1        -0.4041429483E-02      0.9555542002E-02

    ------------------------------------------------
       NWT REQUIRED            3 OUTER ITERATIONS 
       AND A TOTAL OF          5 INNER ITERATIONS.
    ------------------------------------------------

 NO OUTPUT CONTROL FOR STRESS PERIOD   39   TIME STEP   26
 
 SOLVING FOR HEAD 
                                                   Max.-Head-Change                         Max.-Flux-Residual
  Residual-Control   Outer-Iter.   Inner-Iter.     Column Row Layer    Maximum-Head-Change  Column Row Layer    Maximum-Flux-Residual          L2-NORM 
          0                 1           2             4    7     1      -0.1085786309E-01       4    7    1        -0.5707087733E+00      0.1352304906E+01
          0                 2           2             4    7     1       0.1056170920E-02       4    7    1         0.5707067095E-01      0.1352290473E+00
          0                 3           1             4    7     1      -0.7192135494E-04       4    7    1        -0.3994950646E-02      0.9465905827E-02

    ------------------------------------------------
       NWT REQUIRED            3 OUTER ITERATIONS 
       AND A TOTAL OF          5 INNER ITERATIONS.
    ------------------------------------------------

 NO OUTPUT CONTROL FOR STRESS PERIOD   39   TIME STEP   27
 
 SOLVING FOR HEAD 
                                                   Max.-Head-Change                         Max.-Flux-Residual
  Residual-Control   Outer-Iter.   Inner-Iter.     Column Row Layer    Maximum-Head-Change  Column Row Layer    Maximum-Flux-Residual          L2-NORM 
          0                 1           2             4    7     1      -0.1073392723E-01       4    7    1        -0.5641619395E+00      0.1339670436E+01
          0                 2           2             4    7     1       0.1044115421E-02       4    7    1         0.5641599312E-01      0.1339656543E+00
          0                 3           1             4    7     1      -0.7110041938E-04       4    7    1        -0.3949123116E-02      0.9377494062E-02

    ------------------------------------------------
       NWT REQUIRED            3 OUTER ITERATIONS 
       AND A TOTAL OF          5 INNER ITERATIONS.
    ------------------------------------------------

 NO OUTPUT CONTROL FOR STRESS PERIOD   39   TIME STEP   28
 
 SOLVING FOR HEAD 
                                                   Max.-Head-Change                         Max.-Flux-Residual
  Residual-Control   Outer-Iter.   Inner-Iter.     Column Row Layer    Maximum-Head-Change  Column Row Layer    Maximum-Flux-Residual          L2-NORM 
          0                 1           2             4    7     1      -0.1061225464E-01       4    7    1        -0.5577359547E+00      0.1327212298E+01
          0                 2           2             4    7     1       0.1032280076E-02       4    7    1         0.5577339999E-01      0.1327198834E+00
          0                 3           1             4    7     1      -0.7029447541E-04       4    7    1        -0.3904141542E-02      0.9290248510E-02

    ------------------------------------------------
       NWT REQUIRED            3 OUTER ITERATIONS 
       AND A TOTAL OF          5 INNER ITERATIONS.
    ------------------------------------------------

 NO OUTPUT CONTROL FOR STRESS PERIOD   39   TIME STEP   29
 
 SOLVING FOR HEAD 
                                                   Max.-Head-Change                         Max.-Flux-Residual
  Residual-Control   Outer-Iter.   Inner-Iter.     Column Row Layer    Maximum-Head-Change  Column Row Layer    Maximum-Flux-Residual          L2-NORM 
          0                 1           2             4    7     1      -0.1049238416E-01       4    7    1        -0.5514124271E+00      0.1510467045E+01
          0                 2           2             7   13     1      -0.1638690804E-02       7   13    1        -0.9073964752E-01      0.1738860290E+00
          0                 3           2             7   13     1       0.1115651939E-03       7   13    1         0.6350477089E-02      0.1210121754E-01
          0                 4           1             7   13     1      -0.4437233928E-05       7   13    1        -0.2596173913E-03      0.4898995542E-03

    ------------------------------------------------
       NWT REQUIRED            4 OUTER ITERATIONS 
       AND A TOTAL OF          7 INNER ITERATIONS.
    ------------------------------------------------

 NO OUTPUT CONTROL FOR STRESS PERIOD   39   TIME STEP   30



 STREAM LISTING     PERIOD     39   STEP       30

 LAYER ROW COL. STREAM  RCH.  FLOW INTO     FLOW TO   FLOW OUT OF   OVRLND.     DIRECT     STREAM       STREAM     STREAM     STREAM   STREAMBED  STREAMBED
                SEG.NO.  NO.  STRM. RCH.    AQUIFER    STRM. RCH.    RUNOFF     PRECIP       ET          HEAD       DEPTH      WIDTH   CONDCTNC.   GRADIENT

   1    1    1     1     1    3.2750E+01  2.7790E-01   3.2473E+01  0.000E+00  0.000E+00  0.000E+00  1.09432E+03  1.273E+00  1.445E+01  6.503E-02  1.424E+00
   1    2    2     1     2    3.2473E+01  4.3019E-01   3.2042E+01  0.000E+00  0.000E+00  0.000E+00  1.08933E+03  1.270E+00  1.439E+01  1.007E-01  1.423E+00
   1    3    3     1     3    3.2042E+01  3.6669E-01   3.1676E+01  0.000E+00  0.000E+00  0.000E+00  1.08369E+03  1.267E+00  1.432E+01  8.594E-02  1.422E+00
   1    3    4     1     4    3.1676E+01  3.3752E-01   3.1338E+01  0.000E+00  0.000E+00  0.000E+00  1.07867E+03  1.264E+00  1.426E+01  7.916E-02  1.421E+00
   1    4    5     2     1    2.9338E+01  3.3732E-01   2.9001E+01  0.000E+00  0.000E+00  0.000E+00  1.07326E+03  1.325E+00  1.200E+01  7.800E-02  1.442E+00
   1    5    6     2     2    2.9001E+01  2.5899E-01   2.8742E+01  0.000E+00  0.000E+00  0.000E+00  1.06783E+03  1.317E+00  1.200E+01  6.000E-02  1.439E+00
   1    6    6     2     3    2.8742E+01  2.5857E-01   2.8483E+01  0.000E+00  0.000E+00  0.000E+00  1.06310E+03  1.309E+00  1.200E+01  6.000E-02  1.436E+00
   1    7    6     2     4    2.8483E+01  2.5814E-01   2.8225E+01  0.000E+00  0.000E+00  0.000E+00  1.05838E+03  1.302E+00  1.200E+01  6.000E-02  1.434E+00
   1    8    6     2     5    2.8225E+01  2.5771E-01   2.7967E+01  0.000E+00  0.000E+00  0.000E+00  1.05365E+03  1.295E+00  1.200E+01  6.000E-02  1.432E+00
   1    3    5     3     1    2.0000E+00  2.8252E-01   1.7175E+00  0.000E+00  0.000E+00  0.000E+00  1.07555E+03  1.909E+00  9.636E+00  7.227E-02  1.955E+00
   1    3    6     3     2    1.7175E+00  2.4905E-01   1.4684E+00  0.000E+00  0.000E+00  0.000E+00  1.07264E+03  1.727E+00  8.909E+00  6.682E-02  1.864E+00
   1    3    7     3     3    1.4684E+00  1.9718E-01   1.2712E+00  0.000E+00  0.000E+00  0.000E+00  1.06987E+03  1.555E+00  8.218E+00  5.547E-02  1.777E+00
   1    4    8     3     4    1.2712E+00  2.2567E-01   1.0456E+00  0.000E+00  0.000E+00  0.000E+00  1.06682E+03  1.364E+00  7.455E+00  6.709E-02  1.682E+00
   1    5    8     3     5    1.0456E+00  1.5790E-01   8.8768E-01  0.000E+00  0.000E+00  0.000E+00  1.06362E+03  1.164E+00  6.655E+00  4.991E-02  1.582E+00
   1    6    8     3     6    8.8768E-01  5.5980E-02   8.3170E-01  0.000E+00  0.000E+00  0.000E+00  1.06158E+03  1.036E+00  6.145E+00  1.844E-02  1.518E+00
   1    5   10     4     1    1.0000E+01  9.0919E-02   9.9091E+00  0.000E+00  0.000E+00  0.000E+00  1.07836E+03  6.368E-01  1.000E+01  2.500E-02  1.212E+00
   1    5    9     4     2    9.9091E+00  1.8158E-01   9.7275E+00  0.000E+00  0.000E+00  0.000E+00  1.07154E+03  6.315E-01  1.000E+01  5.000E-02  1.211E+00
   1    6    8     4     3    9.7275E+00  1.2689E-01   9.6006E+00  0.000E+00  0.000E+00  0.000E+00  1.06381E+03  6.256E-01  1.000E+01  3.500E-02  1.209E+00
   1    6    8     5     1    1.0432E+01  2.2686E-01   1.0205E+01  0.000E+00  0.000E+00  0.000E+00  1.05868E+03  6.790E-01  1.542E+01  6.166E-02  1.226E+00
   1    7    7     5     2    1.0205E+01  2.7894E-01   9.9265E+00  0.000E+00  0.000E+00  0.000E+00  1.05417E+03  6.732E-01  1.519E+01  7.594E-02  1.224E+00
   1    8    7     5     3    9.9265E+00  1.9221E-01   9.7343E+00  0.000E+00  0.000E+00  0.000E+00  1.04992E+03  6.676E-01  1.497E+01  5.241E-02  1.223E+00
   1    8    6     5     4    9.7343E+00  1.3577E-01   9.5985E+00  0.000E+00  0.000E+00  0.000E+00  1.04691E+03  6.637E-01  1.482E+01  3.706E-02  1.221E+00
   1    9    6     6     1    3.7566E+01  2.7334E-01   3.7293E+01  0.000E+00  0.000E+00  0.000E+00  1.04428E+03  1.556E+00  1.200E+01  6.000E-02  1.519E+00
   1   10    7     6     2    3.7293E+01  2.7293E-01   3.7020E+01  0.000E+00  0.000E+00  0.000E+00  1.03973E+03  1.549E+00  1.200E+01  6.000E-02  1.516E+00
   1   11    7     6     3    3.7020E+01  2.7252E-01   3.6747E+01  0.000E+00  0.000E+00  0.000E+00  1.03518E+03  1.542E+00  1.200E+01  6.000E-02  1.514E+00
   1   12    7     6     4    3.6747E+01  2.7211E-01   3.6475E+01  0.000E+00  0.000E+00  0.000E+00  1.03063E+03  1.535E+00  1.200E+01  6.000E-02  1.512E+00
   1   13    7     6     5    3.6475E+01  8.6556E-03   3.6466E+01  0.000E+00  0.000E+00  0.000E+00  1.02744E+03  1.532E+00  1.200E+01  2.400E-02  1.202E-01
   1   14    9     7     1    1.5000E+02  1.3474E+00   1.4865E+02  0.000E+00  0.000E+00  0.000E+00  1.03987E+03  2.288E+00  5.529E+01  5.593E-01  8.030E-01
   1   13    8     7     2    1.4865E+02  1.8455E+00   1.4681E+02  0.000E+00  0.000E+00  0.000E+00  1.03478E+03  2.279E+00  5.526E+01  6.148E-01  1.001E+00
   1   13    7     7     3    1.4681E+02  1.4574E+00   1.4535E+02  0.000E+00  0.000E+00  0.000E+00  1.02969E+03  2.270E+00  5.522E+01  5.584E-01  8.699E-01
   1   13    6     8     1    1.8182E+02  9.4913E-01   1.8087E+02  0.000E+00  0.000E+00  0.000E+00  1.02490E+03  3.025E+00  4.386E+01  4.469E-01  7.079E-01
   1   13    5     8     2    1.8087E+02  1.7066E-01   1.8070E+02  0.000E+00  0.000E+00  0.000E+00  1.01865E+03  3.021E+00  4.381E+01  4.464E-01  1.274E-01
   1   13    4     8     3    1.8070E+02 -2.3113E+00   1.8301E+02  0.000E+00  0.000E+00  0.000E+00  1.01240E+03  3.028E+00  4.390E+01  4.474E+00 -1.722E-01
   1   13    3     8     4    1.8301E+02 -3.4254E+00   1.8643E+02  0.000E+00  0.000E+00  0.000E+00  1.00617E+03  3.046E+00  4.416E+01  4.500E+00 -2.537E-01
   1   13    2     8     5    1.8643E+02 -2.2520E+00   1.8868E+02  0.000E+00  0.000E+00  0.000E+00  9.99938E+02  3.063E+00  4.441E+01  4.526E+00 -1.659E-01
   1   13    1     8     6    1.8868E+02 -1.7886E+00   1.9047E+02  0.000E+00  0.000E+00  0.000E+00  9.94950E+02  3.075E+00  4.459E+01  2.727E+00 -2.187E-01
   1    8    6     9     1    0.0000E+00  0.0000E+00   0.0000E+00  0.000E+00  0.000E+00  0.000E+00  1.07875E+03  0.000E+00  4.000E+00  0.000E+00  1.000E+00
   1    8    5     9     2    0.0000E+00  0.0000E+00   0.0000E+00  0.000E+00  0.000E+00  0.000E+00  1.07825E+03  0.000E+00  4.000E+00  0.000E+00  1.000E+00





UNSATURATED ZONE PACKAGE VOLUMETRIC BUDGET FOR  TIME STEP    30 STRESS PERIOD   39
  ------------------------------------------------------------------------------



     CUMULATIVE VOLUMES      L**3       RATES FOR THIS TIME STEP      L**3/T
     ------------------                 ------------------------

           IN:                                      IN:
           ---                                      ---
        INFILTRATION =  4273915796.3659          INFILTRATION =           0.8475

          OUT:                                     OUT:
          ----                                     ----
              UZF ET =  1293507499.4914                UZF ET =           0.7500
        UZF RECHARGE =  2716293710.6995          UZF RECHARGE =       0.0000E+00

            IN - OUT =   264114586.1751              IN - OUT =       9.7500E-02

          STORAGE:                                 STORAGE:
          --------                                 --------
      STORAGE CHANGE =   264107451.9652        STORAGE CHANGE =       9.7500E-02

 PERCENT DISCREPANCY IS DIFFERENCE BETWEEN IN-OUT MINUS CHANGE IN STORAGE
 DIVIDED BY THE AVERAGE OF IN AND OUT TIMES 100

 PERCENT DISCREPANCY =           0.00     PERCENT DISCREPANCY =           0.00






1
  VOLUMETRIC BUDGET FOR AGRICULTURAL FIELDS AT  END OF TIME STEP   30, STRESS PERIOD  39
  ------------------------------------------------------------------------------

     CUMULATIVE VOLUMES      L**3       RATES FOR THIS TIME STEP      L**3/T
     ------------------                 ------------------------

           IN:                                      IN:
           ---                                      ---
           AG WELLS      =  2651762432.0000             AG WELLS      =           0.0000
      DIVERSION SEGMENTS =  1537368064.0000        DIVERSION SEGMENTS =           0.0000
           GW IRRIGATION =           0.0000             GW IRRIGATION =           0.0000
           SW IRRIGATION =           0.0000             SW IRRIGATION =           0.0000
        SYSTEM LOSSES GW =           0.0000          SYSTEM LOSSES GW =           0.0000
        SYSTEM LOSSES SW =           0.0000          SYSTEM LOSSES SW =           0.0000

                TOTAL IN =  4189130496.0000                  TOTAL IN =           0.0000

          OUT:                                     OUT:
          ----                                     ----
           AG WELLS      =           0.0000             AG WELLS      =           0.0000
      DIVERSION SEGMENTS =           0.0000        DIVERSION SEGMENTS =           0.0000
           GW IRRIGATION =  2651762432.0000             GW IRRIGATION =           0.0000
           SW IRRIGATION =  1537396352.0000             SW IRRIGATION =           0.0000
        SYSTEM LOSSES GW =           0.0000          SYSTEM LOSSES GW =           0.0000
        SYSTEM LOSSES SW =           0.0000          SYSTEM LOSSES SW =           0.0000

               TOTAL OUT =  4189158912.0000                 TOTAL OUT =           0.0000

                IN - OUT =      -28416.0000                  IN - OUT =           0.0000

     PERCENT DISCREPANCY =          -0.00         PERCENT DISCREPANCY =           0.00



1
  VOLUMETRIC BUDGET FOR ENTIRE MODEL AT END OF TIME STEP   30, STRESS PERIOD  39
  ------------------------------------------------------------------------------

     CUMULATIVE VOLUMES      L**3       RATES FOR THIS TIME STEP      L**3/T
     ------------------                 ------------------------

           IN:                                      IN:
           ---                                      ---
             STORAGE     =  2663378688.0000               STORAGE     =           3.9752
       CONSTANT HEAD     =           0.0000         CONSTANT HEAD     =           0.0000
     HEAD DEP BOUNDS     =    28627020.0000       HEAD DEP BOUNDS     =           0.2865
      STREAM LEAKAGE     =  1192522240.0000        STREAM LEAKAGE     =          12.0541
        UZF RECHARGE     =  2716292608.0000          UZF RECHARGE     =           0.0000
               GW ET     =           0.0000                 GW ET     =           0.0000
     SURFACE LEAKAGE     =           0.0000       SURFACE LEAKAGE     =           0.0000
           AG WELLS      =           0.0000             AG WELLS      =           0.0000

                TOTAL IN =  6600820736.0000                  TOTAL IN =          16.3158

          OUT:                                     OUT:
          ----                                     ----
             STORAGE     =  2842965760.0000               STORAGE     =           6.2495
       CONSTANT HEAD     =           0.0000         CONSTANT HEAD     =           0.0000
     HEAD DEP BOUNDS     =    28961444.0000       HEAD DEP BOUNDS     =           0.2890
      STREAM LEAKAGE     =  1077016064.0000        STREAM LEAKAGE     =           9.7773
        UZF RECHARGE     =           0.0000          UZF RECHARGE     =           0.0000
               GW ET     =      151061.6094                 GW ET     =           0.0000
     SURFACE LEAKAGE     =           0.0000       SURFACE LEAKAGE     =           0.0000
           AG WELLS      =  2651762432.0000             AG WELLS      =           0.0000

               TOTAL OUT =  6600856576.0000                 TOTAL OUT =          16.3158

                IN - OUT =      -35840.0000                  IN - OUT =       1.3351E-05

     PERCENT DISCREPANCY =          -0.00         PERCENT DISCREPANCY =           0.00






         TIME SUMMARY AT END OF TIME STEP   30 IN STRESS PERIOD   39
                    SECONDS     MINUTES      HOURS       DAYS        YEARS
                    -----------------------------------------------------------
   TIME STEP LENGTH  87667.      1461.1      24.352      1.0147     2.77799E-03
 STRESS PERIOD TIME 2.63000E+06  43833.      730.56      30.440     8.33397E-02
         TOTAL TIME 1.00026E+08 1.66710E+06  27785.      1157.7      3.1696    
1
1
                            STRESS PERIOD NO.   40, LENGTH =   2630000.    
                            -----------------------------------------------

                              NUMBER OF TIME STEPS =    30

                               MULTIPLIER FOR DELT =     1.000

                            INITIAL TIME STEP SIZE =   87666.66    

 REUSING NON-PARAMETER GHB CELLS FROM LAST STRESS PERIOD

      2 GHB CELLS

 REUSING STREAM SEGMENT DATA FROM LAST STRESS PERIOD



            AREAL INFILTRATION RATE
 READING ON UNIT   19 WITH FORMAT: (FREE)              

            1           2           3           4           5           6           7           8           9          10
 ........................................................................................................................
   1   1.0000E-10  2.0000E-10   0.000       0.000       0.000       0.000       0.000       0.000       0.000       0.000    
   2   2.0000E-10  1.0000E-10  2.0000E-10   0.000       0.000      8.0000E-10  8.0000E-10  5.0000E-10   0.000       0.000    
   3    0.000      5.0000E-10  1.0000E-10  1.0000E-10  8.0000E-10  8.0000E-10  5.0000E-10  5.0000E-10   0.000       0.000    
   4   8.0000E-10  5.0000E-10  1.0000E-10  1.0000E-10  1.0000E-10  1.0000E-10  1.0000E-10  1.0000E-10  2.0000E-10   0.000    
   5   8.0000E-10  5.0000E-10  1.0000E-10  1.0000E-10  1.0000E-10  1.0000E-10  1.0000E-10  1.0000E-10  1.0000E-10  1.0000E-10
   6   8.0000E-10  5.0000E-10  5.0000E-10  2.0000E-10  2.0000E-10  1.0000E-10  1.0000E-10  1.0000E-10  1.0000E-10  5.0000E-10
   7   8.0000E-10  5.0000E-10  5.0000E-10  2.0000E-10  2.0000E-10  1.0000E-10  1.0000E-10  2.0000E-10  2.0000E-10   0.000    
   8    0.000      5.0000E-10  5.0000E-10  2.0000E-10  2.0000E-10  1.0000E-10  1.0000E-10  2.0000E-10  5.0000E-10   0.000    
   9    0.000      5.0000E-10  5.0000E-10  2.0000E-10  2.0000E-10  1.0000E-10  1.0000E-10  2.0000E-10  5.0000E-10   0.000    
  10    0.000      5.0000E-10  5.0000E-10  2.0000E-10  2.0000E-10  1.0000E-10  1.0000E-10  2.0000E-10  5.0000E-10  8.0000E-10
  11    0.000      1.0000E-10  1.0000E-10  1.0000E-10  1.0000E-10  1.0000E-10  1.0000E-10  2.0000E-10  5.0000E-10   0.000    
  12   1.0000E-10  1.0000E-10  1.0000E-10  1.0000E-10  1.0000E-10  1.0000E-10  1.0000E-10  1.0000E-10  2.0000E-10   0.000    
  13   1.0000E-10  1.0000E-10  2.0000E-10  2.0000E-10  2.0000E-10  2.0000E-10  2.0000E-10  1.0000E-10  1.0000E-10   0.000    
  14    0.000      2.0000E-10  5.0000E-10  5.0000E-10  5.0000E-10  5.0000E-10  5.0000E-10  2.0000E-10  1.0000E-10   0.000    
  15    0.000       0.000      8.0000E-10  8.0000E-10  8.0000E-10  8.0000E-10   0.000       0.000       0.000       0.000    

                  ET RATE =  5.000000E-10

 USING ET EXTINCTION DEPTH FROM PREVIOUS STRESS PERIOD. CURRENT PERIOD IS:      40

 USING EXTINCTION WATER CONTENT FROM PREVIOUS STRESS PERIOD. CURRENT PERIOD IS:      40

 USING AIR ENTRY PRESSURE FROM PREVIOUS STRESS PERIOD. CURRENT PERIOD IS:      40

 USING ROOT PRESSURE HEAD FROM PREVIOUS STRESS PERIOD. CURRENT PERIOD IS:      40

 USING ROOT ACTIVITY FROM PREVIOUS STRESS PERIOD. CURRENT PERIOD IS:      40

 PROCESSING AG STRESS PERIOD DATA

 READING AG STRESS PERIOD DATA

 READING IRRIGATION SEGMENT

 READING IRRIGATION WELL

 READING SUPPLEMENTAL WELL

 END PROCESSING AG STRESS PERIOD DATA OPTIONS
 
 SOLVING FOR HEAD 
                                                   Max.-Head-Change                         Max.-Flux-Residual
  Residual-Control   Outer-Iter.   Inner-Iter.     Column Row Layer    Maximum-Head-Change  Column Row Layer    Maximum-Flux-Residual          L2-NORM 
          0                 1           2             4   13     1       0.2194876268E-01       4   13    1         0.1265251926E+01      0.2670150327E+01
          0                 2           2             4   13     1      -0.2111262636E-02       4   13    1        -0.1251365477E+00      0.2611640487E+00
          0                 3           2             4   13     1       0.1415539670E-03       4   13    1         0.8626321861E-02      0.1774097587E-01
          0                 4           1             4   13     1      -0.5490552346E-05       4   13    1        -0.3440371029E-03      0.6915240490E-03

    ------------------------------------------------
       NWT REQUIRED            4 OUTER ITERATIONS 
       AND A TOTAL OF          7 INNER ITERATIONS.
    ------------------------------------------------

 NO OUTPUT CONTROL FOR STRESS PERIOD   40   TIME STEP    1
 
 SOLVING FOR HEAD 
                                                   Max.-Head-Change                         Max.-Flux-Residual
  Residual-Control   Outer-Iter.   Inner-Iter.     Column Row Layer    Maximum-Head-Change  Column Row Layer    Maximum-Flux-Residual          L2-NORM 
          0                 1           2             4   13     1       0.1980614393E-01       4   13    1         0.1140967063E+01      0.2516033718E+01
          0                 2           2             4   13     1      -0.1905068781E-02       4   13    1        -0.1128379882E+00      0.2463926766E+00
          0                 3           2             4   13     1       0.1277156937E-03       4   13    1         0.7777604913E-02      0.1676613465E-01
          0                 4           1             4   13     1      -0.4955325744E-05       4   13    1        -0.3102655446E-03      0.6565950671E-03

    ------------------------------------------------
       NWT REQUIRED            4 OUTER ITERATIONS 
       AND A TOTAL OF          7 INNER ITERATIONS.
    ------------------------------------------------

 NO OUTPUT CONTROL FOR STRESS PERIOD   40   TIME STEP    2
 
 SOLVING FOR HEAD 
                                                   Max.-Head-Change                         Max.-Flux-Residual
  Residual-Control   Outer-Iter.   Inner-Iter.     Column Row Layer    Maximum-Head-Change  Column Row Layer    Maximum-Flux-Residual          L2-NORM 
          0                 1           2             2   13     1       0.1810197163E-01       4   13    1         0.1029585991E+01      0.2378682194E+01
          0                 2           2             4   13     1      -0.1720194441E-02       4   13    1        -0.1018146582E+00      0.2332350192E+00
          0                 3           1             4   13     1       0.1153079061E-03       4   13    1         0.7016845593E-02      0.1589968700E-01
          0                 4           1             4   13     1      -0.4475573951E-05       4   13    1        -0.2800319826E-03      0.6241158877E-03

    ------------------------------------------------
       NWT REQUIRED            4 OUTER ITERATIONS 
       AND A TOTAL OF          6 INNER ITERATIONS.
    ------------------------------------------------

 NO OUTPUT CONTROL FOR STRESS PERIOD   40   TIME STEP    3
 
 SOLVING FOR HEAD 
                                                   Max.-Head-Change                         Max.-Flux-Residual
  Residual-Control   Outer-Iter.   Inner-Iter.     Column Row Layer    Maximum-Head-Change  Column Row Layer    Maximum-Flux-Residual          L2-NORM 
          0                 1           2             2   13     1       0.1667140379E-01       2   13    1         0.9436104964E+00      0.2256338530E+01
          0                 2           2             4   13     1      -0.1554441708E-02       4   13    1        -0.9193491624E-01      0.2215155781E+00
          0                 3           1             4   13     1       0.1041957798E-03       4   13    1         0.6335835325E-02      0.1512562087E-01
          0                 4           1             4   13     1      -0.4039565582E-05       4   13    1        -0.2525609843E-03      0.5940699199E-03

    ------------------------------------------------
       NWT REQUIRED            4 OUTER ITERATIONS 
       AND A TOTAL OF          6 INNER ITERATIONS.
    ------------------------------------------------

 NO OUTPUT CONTROL FOR STRESS PERIOD   40   TIME STEP    4
 
 SOLVING FOR HEAD 
                                                   Max.-Head-Change                         Max.-Flux-Residual
  Residual-Control   Outer-Iter.   Inner-Iter.     Column Row Layer    Maximum-Head-Change  Column Row Layer    Maximum-Flux-Residual          L2-NORM 
          0                 1           2             2   13     1       0.1535490817E-01       2   13    1         0.8689963148E+00      0.2147396828E+01
          0                 2           2             2   13     1      -0.1422979359E-02       4   13    1        -0.8311836294E-01      0.2111555265E+00
          0                 3           1             4   13     1       0.9422770181E-04       4   13    1         0.5726409393E-02      0.1444308395E-01

    ------------------------------------------------
       NWT REQUIRED            3 OUTER ITERATIONS 
       AND A TOTAL OF          5 INNER ITERATIONS.
    ------------------------------------------------

 NO OUTPUT CONTROL FOR STRESS PERIOD   40   TIME STEP    5
 
 SOLVING FOR HEAD 
                                                   Max.-Head-Change                         Max.-Flux-Residual
  Residual-Control   Outer-Iter.   Inner-Iter.     Column Row Layer    Maximum-Head-Change  Column Row Layer    Maximum-Flux-Residual          L2-NORM 
          0                 1           2             2   13     1       0.1414307164E-01       2   13    1         0.8003181139E+00      0.2050332777E+01
          0                 2           2             2   13     1      -0.1311340704E-02       2   13    1        -0.7627733547E-01      0.2018158197E+00
          0                 3           1             4   13     1       0.8522566387E-04       4   13    1         0.5175023548E-02      0.1382972075E-01

    ------------------------------------------------
       NWT REQUIRED            3 OUTER ITERATIONS 
       AND A TOTAL OF          5 INNER ITERATIONS.
    ------------------------------------------------

 NO OUTPUT CONTROL FOR STRESS PERIOD   40   TIME STEP    6
 
 SOLVING FOR HEAD 
                                                   Max.-Head-Change                         Max.-Flux-Residual
  Residual-Control   Outer-Iter.   Inner-Iter.     Column Row Layer    Maximum-Head-Change  Column Row Layer    Maximum-Flux-Residual          L2-NORM 
          0                 1           2             2   13     1       0.1302794154E-01       2   13    1         0.7371216812E+00      0.1963812415E+01
          0                 2           2             2   13     1      -0.1208490161E-02       2   13    1        -0.7028524446E-01      0.1935299939E+00
          0                 3           1             4   13     1       0.7718632428E-04       4   13    1         0.4682678702E-02      0.1328659452E-01

    ------------------------------------------------
       NWT REQUIRED            3 OUTER ITERATIONS 
       AND A TOTAL OF          5 INNER ITERATIONS.
    ------------------------------------------------

 NO OUTPUT CONTROL FOR STRESS PERIOD   40   TIME STEP    7
 
 SOLVING FOR HEAD 
                                                   Max.-Head-Change                         Max.-Flux-Residual
  Residual-Control   Outer-Iter.   Inner-Iter.     Column Row Layer    Maximum-Head-Change  Column Row Layer    Maximum-Flux-Residual          L2-NORM 
          0                 1           2             2   13     1       0.1200191413E-01       2   13    1         0.6789771258E+00      0.1886749892E+01
          0                 2           2             2   13     1      -0.1113808712E-02       2   13    1        -0.6476945691E-01      0.1861596934E+00
          0                 3           1             2   13     1       0.7089846217E-04       4   13    1         0.4239915689E-02      0.1280017094E-01

    ------------------------------------------------
       NWT REQUIRED            3 OUTER ITERATIONS 
       AND A TOTAL OF          5 INNER ITERATIONS.
    ------------------------------------------------

 NO OUTPUT CONTROL FOR STRESS PERIOD   40   TIME STEP    8
 
 SOLVING FOR HEAD 
                                                   Max.-Head-Change                         Max.-Flux-Residual
  Residual-Control   Outer-Iter.   Inner-Iter.     Column Row Layer    Maximum-Head-Change  Column Row Layer    Maximum-Flux-Residual          L2-NORM 
          0                 1           2             2   13     1       0.1105788746E-01       2   13    1         0.6254818093E+00      0.1818033528E+01
          0                 2           2             2   13     1      -0.1026584152E-02       2   13    1        -0.5968823290E-01      0.1795891861E+00
          0                 3           1             2   13     1       0.6537422530E-04       2   13    1         0.3906403773E-02      0.1236740260E-01

    ------------------------------------------------
       NWT REQUIRED            3 OUTER ITERATIONS 
       AND A TOTAL OF          5 INNER ITERATIONS.
    ------------------------------------------------

 NO OUTPUT CONTROL FOR STRESS PERIOD   40   TIME STEP    9
 
 SOLVING FOR HEAD 
                                                   Max.-Head-Change                         Max.-Flux-Residual
  Residual-Control   Outer-Iter.   Inner-Iter.     Column Row Layer    Maximum-Head-Change  Column Row Layer    Maximum-Flux-Residual          L2-NORM 
          0                 1           2             2   13     1       0.1018916675E-01       2   13    1         0.5762562408E+00      0.1756677294E+01
          0                 2           2             2   13     1      -0.9461501534E-03       2   13    1        -0.5500286512E-01      0.1737161717E+00
          0                 3           1             4    7     1      -0.6200854795E-04       2   13    1         0.3601092531E-02      0.1198045532E-01

    ------------------------------------------------
       NWT REQUIRED            3 OUTER ITERATIONS 
       AND A TOTAL OF          5 INNER ITERATIONS.
    ------------------------------------------------

 NO OUTPUT CONTROL FOR STRESS PERIOD   40   TIME STEP   10
 
 SOLVING FOR HEAD 
                                                   Max.-Head-Change                         Max.-Flux-Residual
  Residual-Control   Outer-Iter.   Inner-Iter.     Column Row Layer    Maximum-Head-Change  Column Row Layer    Maximum-Flux-Residual          L2-NORM 
          0                 1           2             2   13     1       0.9390100939E-02       2   13    1         0.5309801213E+00      0.1701819478E+01
          0                 2           2             4    7     1       0.9002711037E-03       2   13    1        -0.5070108239E-01      0.1684698145E+00
          0                 3           1             4    7     1      -0.6130514387E-04       4    7    1        -0.3404927070E-02      0.1163567965E-01

    ------------------------------------------------
       NWT REQUIRED            3 OUTER ITERATIONS 
       AND A TOTAL OF          5 INNER ITERATIONS.
    ------------------------------------------------

 NO OUTPUT CONTROL FOR STRESS PERIOD   40   TIME STEP   11
 
 SOLVING FOR HEAD 
                                                   Max.-Head-Change                         Max.-Flux-Residual
  Residual-Control   Outer-Iter.   Inner-Iter.     Column Row Layer    Maximum-Head-Change  Column Row Layer    Maximum-Flux-Residual          L2-NORM 
          0                 1           2             4    7     1      -0.9150452895E-02       2   13    1         0.4893240639E+00      0.1652653056E+01
          0                 2           2             4    7     1       0.8900872487E-03       4    7    1         0.4808969186E-01      0.1637509550E+00
          0                 3           1             4    7     1      -0.6061166018E-04       4    7    1        -0.3366281124E-02      0.1132450239E-01

    ------------------------------------------------
       NWT REQUIRED            3 OUTER ITERATIONS 
       AND A TOTAL OF          5 INNER ITERATIONS.
    ------------------------------------------------

 NO OUTPUT CONTROL FOR STRESS PERIOD   40   TIME STEP   12
 
 SOLVING FOR HEAD 
                                                   Max.-Head-Change                         Max.-Flux-Residual
  Residual-Control   Outer-Iter.   Inner-Iter.     Column Row Layer    Maximum-Head-Change  Column Row Layer    Maximum-Flux-Residual          L2-NORM 
          0                 1           2             4    7     1      -0.9047236208E-02       4    7    1        -0.4754552121E+00      0.1608479516E+01
          0                 2           2             4    7     1       0.8800474611E-03       4    7    1         0.4754539333E-01      0.1595285549E+00
          0                 3           1             4    7     1      -0.5992798778E-04       4    7    1        -0.3328180186E-02      0.1104604069E-01

    ------------------------------------------------
       NWT REQUIRED            3 OUTER ITERATIONS 
       AND A TOTAL OF          5 INNER ITERATIONS.
    ------------------------------------------------

 NO OUTPUT CONTROL FOR STRESS PERIOD   40   TIME STEP   13
 
 SOLVING FOR HEAD 
                                                   Max.-Head-Change                         Max.-Flux-Residual
  Residual-Control   Outer-Iter.   Inner-Iter.     Column Row Layer    Maximum-Head-Change  Column Row Layer    Maximum-Flux-Residual          L2-NORM 
          0                 1           2             4    7     1      -0.8945730842E-02       4    7    1        -0.4701034857E+00      0.1568726287E+01
          0                 2           2             4    7     1       0.8701738048E-03       4    7    1         0.4701022391E-01      0.1557152581E+00
          0                 3           1             4    7     1      -0.5925562765E-04       4    7    1        -0.3290718276E-02      0.1079363441E-01

    ------------------------------------------------
       NWT REQUIRED            3 OUTER ITERATIONS 
       AND A TOTAL OF          5 INNER ITERATIONS.
    ------------------------------------------------

 NO OUTPUT CONTROL FOR STRESS PERIOD   40   TIME STEP   14
 
 SOLVING FOR HEAD 
                                                   Max.-Head-Change                         Max.-Flux-Residual
  Residual-Control   Outer-Iter.   Inner-Iter.     Column Row Layer    Maximum-Head-Change  Column Row Layer    Maximum-Flux-Residual          L2-NORM 
          0                 1           2             4    7     1      -0.8845355917E-02       4    7    1        -0.4648107327E+00      0.1532793375E+01
          0                 2           2             4    7     1       0.8604101091E-03       4    7    1         0.4648095179E-01      0.1522677617E+00
          0                 3           1             4    7     1      -0.5859075586E-04       4    7    1        -0.3253669174E-02      0.1056903686E-01

    ------------------------------------------------
       NWT REQUIRED            3 OUTER ITERATIONS 
       AND A TOTAL OF          5 INNER ITERATIONS.
    ------------------------------------------------

 NO OUTPUT CONTROL FOR STRESS PERIOD   40   TIME STEP   15
 
 SOLVING FOR HEAD 
                                                   Max.-Head-Change                         Max.-Flux-Residual
  Residual-Control   Outer-Iter.   Inner-Iter.     Column Row Layer    Maximum-Head-Change  Column Row Layer    Maximum-Flux-Residual          L2-NORM 
          0                 1           2             4    7     1      -0.8746643300E-02       4    7    1        -0.4596063676E+00      0.1500197462E+01
          0                 2           2             4    7     1       0.8508081087E-03       4    7    1         0.4596051835E-01      0.1491298375E+00
          0                 3           1             4    7     1      -0.5793689459E-04       4    7    1        -0.3217238791E-02      0.1035770280E-01

    ------------------------------------------------
       NWT REQUIRED            3 OUTER ITERATIONS 
       AND A TOTAL OF          5 INNER ITERATIONS.
    ------------------------------------------------

 NO OUTPUT CONTROL FOR STRESS PERIOD   40   TIME STEP   16
 
 SOLVING FOR HEAD 
                                                   Max.-Head-Change                         Max.-Flux-Residual
  Residual-Control   Outer-Iter.   Inner-Iter.     Column Row Layer    Maximum-Head-Change  Column Row Layer    Maximum-Flux-Residual          L2-NORM 
          0                 1           2             4    7     1      -0.8649284478E-02       4    7    1        -0.4544733048E+00      0.1470519081E+01
          0                 2           2             4    7     1       0.8413377950E-03       4    7    1         0.4544721507E-01      0.1462705562E+00
          0                 3           1             4    7     1      -0.5729200158E-04       4    7    1        -0.3181307526E-02      0.1016717984E-01

    ------------------------------------------------
       NWT REQUIRED            3 OUTER ITERATIONS 
       AND A TOTAL OF          5 INNER ITERATIONS.
    ------------------------------------------------

 NO OUTPUT CONTROL FOR STRESS PERIOD   40   TIME STEP   17
 
 SOLVING FOR HEAD 
                                                   Max.-Head-Change                         Max.-Flux-Residual
  Residual-Control   Outer-Iter.   Inner-Iter.     Column Row Layer    Maximum-Head-Change  Column Row Layer    Maximum-Flux-Residual          L2-NORM 
          0                 1           2             4    7     1      -0.8553526245E-02       4    7    1        -0.4494253224E+00      0.1443390412E+01
          0                 2           2             4    7     1       0.8320231732E-03       4    7    1         0.4494241972E-01      0.1436540457E+00
          0                 3           1             4    7     1      -0.5665770988E-04       4    7    1        -0.3145971819E-02      0.9993180152E-02

    ------------------------------------------------
       NWT REQUIRED            3 OUTER ITERATIONS 
       AND A TOTAL OF          5 INNER ITERATIONS.
    ------------------------------------------------

 NO OUTPUT CONTROL FOR STRESS PERIOD   40   TIME STEP   18
 
 SOLVING FOR HEAD 
                                                   Max.-Head-Change                         Max.-Flux-Residual
  Residual-Control   Outer-Iter.   Inner-Iter.     Column Row Layer    Maximum-Head-Change  Column Row Layer    Maximum-Flux-Residual          L2-NORM 
          0                 1           2             4    7     1      -0.8459057043E-02       4    7    1        -0.4444454429E+00      0.1418486435E+01
          0                 2           2             4    7     1       0.8228339374E-03       4    7    1         0.4444443456E-01      0.1412467341E+00
          0                 3           1             4    7     1      -0.5603195663E-04       4    7    1        -0.3111112813E-02      0.9831915606E-02

    ------------------------------------------------
       NWT REQUIRED            3 OUTER ITERATIONS 
       AND A TOTAL OF          5 INNER ITERATIONS.
    ------------------------------------------------

 NO OUTPUT CONTROL FOR STRESS PERIOD   40   TIME STEP   19
 
 SOLVING FOR HEAD 
                                                   Max.-Head-Change                         Max.-Flux-Residual
  Residual-Control   Outer-Iter.   Inner-Iter.     Column Row Layer    Maximum-Head-Change  Column Row Layer    Maximum-Flux-Residual          L2-NORM 
          0                 1           2             4    7     1      -0.8365854797E-02       4    7    1        -0.4395323991E+00      0.1395521502E+01
          0                 2           2             4    7     1       0.8137679406E-03       4    7    1         0.4395313291E-01      0.1390227398E+00
          0                 3           1             4    7     1      -0.5541459488E-04       4    7    1        -0.3076721637E-02      0.9682792911E-02

    ------------------------------------------------
       NWT REQUIRED            3 OUTER ITERATIONS 
       AND A TOTAL OF          5 INNER ITERATIONS.
    ------------------------------------------------

 NO OUTPUT CONTROL FOR STRESS PERIOD   40   TIME STEP   20
 
 SOLVING FOR HEAD 
                                                   Max.-Head-Change                         Max.-Flux-Residual
  Residual-Control   Outer-Iter.   Inner-Iter.     Column Row Layer    Maximum-Head-Change  Column Row Layer    Maximum-Flux-Residual          L2-NORM 
          0                 1           2             4    7     1      -0.8273900200E-02       4    7    1        -0.4346850466E+00      0.1374266707E+01
          0                 2           2             4    7     1       0.8048233062E-03       4    7    1         0.4346840036E-01      0.1369616392E+00
          0                 3           1             4    7     1      -0.5480549846E-04       4    7    1        -0.3042790331E-02      0.9544859359E-02

    ------------------------------------------------
       NWT REQUIRED            3 OUTER ITERATIONS 
       AND A TOTAL OF          5 INNER ITERATIONS.
    ------------------------------------------------

 NO OUTPUT CONTROL FOR STRESS PERIOD   40   TIME STEP   21
 
 SOLVING FOR HEAD 
                                                   Max.-Head-Change                         Max.-Flux-Residual
  Residual-Control   Outer-Iter.   Inner-Iter.     Column Row Layer    Maximum-Head-Change  Column Row Layer    Maximum-Flux-Residual          L2-NORM 
          0                 1           2             4    7     1      -0.8183168378E-02       4    7    1        -0.4299023843E+00      0.1354492054E+01
          0                 2           2             4    7     1       0.7959976120E-03       4    7    1         0.4299013668E-01      0.1350386108E+00
          0                 3           1             4    7     1      -0.5420450101E-04       4    7    1        -0.3009311829E-02      0.9414730728E-02

    ------------------------------------------------
       NWT REQUIRED            3 OUTER ITERATIONS 
       AND A TOTAL OF          5 INNER ITERATIONS.
    ------------------------------------------------

 NO OUTPUT CONTROL FOR STRESS PERIOD   40   TIME STEP   22
 
 SOLVING FOR HEAD 
                                                   Max.-Head-Change                         Max.-Flux-Residual
  Residual-Control   Outer-Iter.   Inner-Iter.     Column Row Layer    Maximum-Head-Change  Column Row Layer    Maximum-Flux-Residual          L2-NORM 
          0                 1           2             4    7     1      -0.8093906956E-02       4    7    1        -0.4251980075E+00      0.1336025812E+01
          0                 2           2             4    7     1       0.7873149468E-03       4    7    1         0.4251970151E-01      0.1332774945E+00
          0                 3           1             4    7     1      -0.5361324336E-04       4    7    1        -0.2976381325E-02      0.9296657143E-02

    ------------------------------------------------
       NWT REQUIRED            3 OUTER ITERATIONS 
       AND A TOTAL OF          5 INNER ITERATIONS.
    ------------------------------------------------

 NO OUTPUT CONTROL FOR STRESS PERIOD   40   TIME STEP   23
 
 SOLVING FOR HEAD 
                                                   Max.-Head-Change                         Max.-Flux-Residual
  Residual-Control   Outer-Iter.   Inner-Iter.     Column Row Layer    Maximum-Head-Change  Column Row Layer    Maximum-Flux-Residual          L2-NORM 
          0                 1           2             4    7     1      -0.8006083544E-02       4    7    1        -0.4205698696E+00      0.1318696862E+01
          0                 2           2             4    7     1       0.7787721600E-03       4    7    1         0.4205689014E-01      0.1315503323E+00
          0                 3           1             4    7     1      -0.5303151088E-04       4    7    1        -0.2943984500E-02      0.9179174550E-02

    ------------------------------------------------
       NWT REQUIRED            3 OUTER ITERATIONS 
       AND A TOTAL OF          5 INNER ITERATIONS.
    ------------------------------------------------

 NO OUTPUT CONTROL FOR STRESS PERIOD   40   TIME STEP   24
 
 SOLVING FOR HEAD 
                                                   Max.-Head-Change                         Max.-Flux-Residual
  Residual-Control   Outer-Iter.   Inner-Iter.     Column Row Layer    Maximum-Head-Change  Column Row Layer    Maximum-Flux-Residual          L2-NORM 
          0                 1           2             4    7     1      -0.7919125575E-02       4    7    1        -0.4159865220E+00      0.1302304540E+01
          0                 2           2             4    7     1       0.7703135562E-03       4    7    1         0.4159855778E-01      0.1299483499E+00
          0                 3           1             4    7     1      -0.5245551085E-04       4    7    1        -0.2911901172E-02      0.9070462535E-02

    ------------------------------------------------
       NWT REQUIRED            3 OUTER ITERATIONS 
       AND A TOTAL OF          5 INNER ITERATIONS.
    ------------------------------------------------

 NO OUTPUT CONTROL FOR STRESS PERIOD   40   TIME STEP   25
 
 SOLVING FOR HEAD 
                                                   Max.-Head-Change                         Max.-Flux-Residual
  Residual-Control   Outer-Iter.   Inner-Iter.     Column Row Layer    Maximum-Head-Change  Column Row Layer    Maximum-Flux-Residual          L2-NORM 
          0                 1           2             4    7     1      -0.7833564389E-02       4    7    1        -0.4114778170E+00      0.1286803392E+01
          0                 2           2             4    7     1       0.7619908205E-03       4    7    1         0.4114768958E-01      0.1284303133E+00
          0                 3           1             4    7     1      -0.5188876309E-04       4    7    1        -0.2880340384E-02      0.8967286817E-02

    ------------------------------------------------
       NWT REQUIRED            3 OUTER ITERATIONS 
       AND A TOTAL OF          5 INNER ITERATIONS.
    ------------------------------------------------

 NO OUTPUT CONTROL FOR STRESS PERIOD   40   TIME STEP   26
 
 SOLVING FOR HEAD 
                                                   Max.-Head-Change                         Max.-Flux-Residual
  Residual-Control   Outer-Iter.   Inner-Iter.     Column Row Layer    Maximum-Head-Change  Column Row Layer    Maximum-Flux-Residual          L2-NORM 
          0                 1           2             4    7     1      -0.7749365387E-02       4    7    1        -0.4070415338E+00      0.1272107363E+01
          0                 2           2             4    7     1       0.7538005870E-03       4    7    1         0.4070406348E-01      0.1269946623E+00
          0                 3           1             4    7     1      -0.5133103851E-04       4    7    1        -0.2849286541E-02      0.8869454449E-02

    ------------------------------------------------
       NWT REQUIRED            3 OUTER ITERATIONS 
       AND A TOTAL OF          5 INNER ITERATIONS.
    ------------------------------------------------

 NO OUTPUT CONTROL FOR STRESS PERIOD   40   TIME STEP   27
 
 SOLVING FOR HEAD 
                                                   Max.-Head-Change                         Max.-Flux-Residual
  Residual-Control   Outer-Iter.   Inner-Iter.     Column Row Layer    Maximum-Head-Change  Column Row Layer    Maximum-Flux-Residual          L2-NORM 
          0                 1           2             4    7     1      -0.7665958525E-02       4    7    1        -0.4026461108E+00      0.1258122384E+01
          0                 2           2             4    7     1       0.7456874064E-03       4    7    1         0.4026452338E-01      0.1256154143E+00
          0                 3           1             4    7     1      -0.5077856073E-04       4    7    1        -0.2818518690E-02      0.8774904923E-02

    ------------------------------------------------
       NWT REQUIRED            3 OUTER ITERATIONS 
       AND A TOTAL OF          5 INNER ITERATIONS.
    ------------------------------------------------

 NO OUTPUT CONTROL FOR STRESS PERIOD   40   TIME STEP   28
 
 SOLVING FOR HEAD 
                                                   Max.-Head-Change                         Max.-Flux-Residual
  Residual-Control   Outer-Iter.   Inner-Iter.     Column Row Layer    Maximum-Head-Change  Column Row Layer    Maximum-Flux-Residual          L2-NORM 
          0                 1           2             4    7     1      -0.7584156658E-02       4    7    1        -0.3983364119E+00      0.1244771265E+01
          0                 2           2             4    7     1       0.7377303467E-03       4    7    1         0.3983355559E-01      0.1243015884E+00
          0                 3           1             4    7     1      -0.5023671408E-04       4    7    1        -0.2788350922E-02      0.8684897173E-02

    ------------------------------------------------
       NWT REQUIRED            3 OUTER ITERATIONS 
       AND A TOTAL OF          5 INNER ITERATIONS.
    ------------------------------------------------

 NO OUTPUT CONTROL FOR STRESS PERIOD   40   TIME STEP   29
 
 SOLVING FOR HEAD 
                                                   Max.-Head-Change                         Max.-Flux-Residual
  Residual-Control   Outer-Iter.   Inner-Iter.     Column Row Layer    Maximum-Head-Change  Column Row Layer    Maximum-Flux-Residual          L2-NORM 
          0                 1           2             4    7     1      -0.7503095979E-02       4    7    1        -0.3940652796E+00      0.1231981592E+01
          0                 2           2             4    7     1       0.7298449559E-03       4    7    1         0.3940644442E-01      0.1230277846E+00
          0                 3           1             4    7     1      -0.4969974763E-04       4    7    1        -0.2758453087E-02      0.8597485953E-02

    ------------------------------------------------
       NWT REQUIRED            3 OUTER ITERATIONS 
       AND A TOTAL OF          5 INNER ITERATIONS.
    ------------------------------------------------

 NO OUTPUT CONTROL FOR STRESS PERIOD   40   TIME STEP   30



 STREAM LISTING     PERIOD     40   STEP       30

 LAYER ROW COL. STREAM  RCH.  FLOW INTO     FLOW TO   FLOW OUT OF   OVRLND.     DIRECT     STREAM       STREAM     STREAM     STREAM   STREAMBED  STREAMBED
                SEG.NO.  NO.  STRM. RCH.    AQUIFER    STRM. RCH.    RUNOFF     PRECIP       ET          HEAD       DEPTH      WIDTH   CONDCTNC.   GRADIENT

   1    1    1     1     1    7.3498E+01  4.1744E-01   7.3080E+01  0.000E+00  0.000E+00  0.000E+00  1.09473E+03  1.681E+00  1.982E+01  8.917E-02  1.560E+00
   1    2    2     1     2    7.3080E+01  6.4665E-01   7.2434E+01  0.000E+00  0.000E+00  0.000E+00  1.08973E+03  1.675E+00  1.976E+01  1.383E-01  1.558E+00
   1    3    3     1     3    7.2434E+01  5.5165E-01   7.1882E+01  0.000E+00  0.000E+00  0.000E+00  1.08409E+03  1.669E+00  1.969E+01  1.182E-01  1.556E+00
   1    3    4     1     4    7.1882E+01  5.0813E-01   7.1374E+01  0.000E+00  0.000E+00  0.000E+00  1.07907E+03  1.663E+00  1.963E+01  1.090E-01  1.554E+00
   1    4    5     2     1    6.9374E+01  4.0746E-01   6.8966E+01  0.000E+00  0.000E+00  0.000E+00  1.07416E+03  2.224E+00  1.200E+01  7.800E-02  1.741E+00
   1    5    6     2     2    6.8966E+01  3.1301E-01   6.8653E+01  0.000E+00  0.000E+00  0.000E+00  1.06873E+03  2.217E+00  1.200E+01  6.000E-02  1.739E+00
   1    6    6     2     3    6.8653E+01  3.1265E-01   6.8341E+01  0.000E+00  0.000E+00  0.000E+00  1.06400E+03  2.211E+00  1.200E+01  6.000E-02  1.737E+00
   1    7    6     2     4    6.8341E+01  3.1228E-01   6.8028E+01  0.000E+00  0.000E+00  0.000E+00  1.05928E+03  2.205E+00  1.200E+01  6.000E-02  1.735E+00
   1    8    6     2     5    6.8028E+01  3.1192E-01   6.7717E+01  0.000E+00  0.000E+00  0.000E+00  1.05456E+03  2.199E+00  1.200E+01  6.000E-02  1.733E+00
   1    3    5     3     1    2.0000E+00  2.8252E-01   1.7175E+00  0.000E+00  0.000E+00  0.000E+00  1.07555E+03  1.909E+00  9.636E+00  7.227E-02  1.955E+00
   1    3    6     3     2    1.7175E+00  2.4905E-01   1.4684E+00  0.000E+00  0.000E+00  0.000E+00  1.07264E+03  1.727E+00  8.909E+00  6.682E-02  1.864E+00
   1    3    7     3     3    1.4684E+00  1.9718E-01   1.2712E+00  0.000E+00  0.000E+00  0.000E+00  1.06987E+03  1.555E+00  8.218E+00  5.547E-02  1.777E+00
   1    4    8     3     4    1.2712E+00  2.2567E-01   1.0456E+00  0.000E+00  0.000E+00  0.000E+00  1.06682E+03  1.364E+00  7.455E+00  6.709E-02  1.682E+00
   1    5    8     3     5    1.0456E+00  1.5790E-01   8.8768E-01  0.000E+00  0.000E+00  0.000E+00  1.06362E+03  1.164E+00  6.655E+00  4.991E-02  1.582E+00
   1    6    8     3     6    8.8768E-01  5.5980E-02   8.3170E-01  0.000E+00  0.000E+00  0.000E+00  1.06158E+03  1.036E+00  6.145E+00  1.844E-02  1.518E+00
   1    5   10     4     1    1.0000E+01  9.0919E-02   9.9091E+00  0.000E+00  0.000E+00  0.000E+00  1.07836E+03  6.368E-01  1.000E+01  2.500E-02  1.212E+00
   1    5    9     4     2    9.9091E+00  1.8158E-01   9.7275E+00  0.000E+00  0.000E+00  0.000E+00  1.07154E+03  6.315E-01  1.000E+01  5.000E-02  1.211E+00
   1    6    8     4     3    9.7275E+00  1.2689E-01   9.6006E+00  0.000E+00  0.000E+00  0.000E+00  1.06381E+03  6.256E-01  1.000E+01  3.500E-02  1.209E+00
   1    6    8     5     1    1.0432E+01  2.2686E-01   1.0205E+01  0.000E+00  0.000E+00  0.000E+00  1.05868E+03  6.790E-01  1.542E+01  6.166E-02  1.226E+00
   1    7    7     5     2    1.0205E+01  2.7894E-01   9.9265E+00  0.000E+00  0.000E+00  0.000E+00  1.05417E+03  6.732E-01  1.519E+01  7.594E-02  1.224E+00
   1    8    7     5     3    9.9265E+00  1.9221E-01   9.7343E+00  0.000E+00  0.000E+00  0.000E+00  1.04992E+03  6.676E-01  1.497E+01  5.241E-02  1.223E+00
   1    8    6     5     4    9.7343E+00  1.3577E-01   9.5985E+00  0.000E+00  0.000E+00  0.000E+00  1.04691E+03  6.637E-01  1.482E+01  3.706E-02  1.221E+00
   1    9    6     6     1    7.7315E+01  3.2406E-01   7.6991E+01  0.000E+00  0.000E+00  0.000E+00  1.04513E+03  2.401E+00  1.200E+01  6.000E-02  1.800E+00
   1   10    7     6     2    7.6991E+01  3.2369E-01   7.6667E+01  0.000E+00  0.000E+00  0.000E+00  1.04058E+03  2.395E+00  1.200E+01  6.000E-02  1.798E+00
   1   11    7     6     3    7.6667E+01  3.2333E-01   7.6344E+01  0.000E+00  0.000E+00  0.000E+00  1.03603E+03  2.389E+00  1.200E+01  6.000E-02  1.796E+00
   1   12    7     6     4    7.6344E+01  3.2297E-01   7.6021E+01  0.000E+00  0.000E+00  0.000E+00  1.03147E+03  2.383E+00  1.200E+01  6.000E-02  1.794E+00
   1   13    7     6     5    7.6021E+01  2.7961E-02   7.5993E+01  0.000E+00  0.000E+00  0.000E+00  1.02829E+03  2.379E+00  1.200E+01  2.400E-02  3.883E-01
   1   14    9     7     1    1.5000E+02  1.3472E+00   1.4865E+02  0.000E+00  0.000E+00  0.000E+00  1.03987E+03  2.288E+00  5.529E+01  5.593E-01  8.029E-01
   1   13    8     7     2    1.4865E+02  1.8410E+00   1.4681E+02  0.000E+00  0.000E+00  0.000E+00  1.03478E+03  2.279E+00  5.526E+01  6.148E-01  9.982E-01
   1   13    7     7     3    1.4681E+02  1.4331E+00   1.4538E+02  0.000E+00  0.000E+00  0.000E+00  1.02969E+03  2.270E+00  5.522E+01  5.585E-01  8.554E-01
   1   13    6     8     1    2.2137E+02  1.0812E+00   2.2029E+02  0.000E+00  0.000E+00  0.000E+00  1.02513E+03  3.256E+00  4.722E+01  4.812E-01  7.490E-01
   1   13    5     8     2    2.2029E+02  2.4254E-01   2.2005E+02  0.000E+00  0.000E+00  0.000E+00  1.01888E+03  3.253E+00  4.717E+01  4.806E-01  1.682E-01
   1   13    4     8     3    2.2005E+02 -2.3650E+00   2.2241E+02  0.000E+00  0.000E+00  0.000E+00  1.01263E+03  3.259E+00  4.725E+01  4.815E+00 -1.637E-01
   1   13    3     8     4    2.2241E+02 -3.5472E+00   2.2596E+02  0.000E+00  0.000E+00  0.000E+00  1.00640E+03  3.275E+00  4.749E+01  4.839E+00 -2.443E-01
   1   13    2     8     5    2.2596E+02 -2.4144E+00   2.2837E+02  0.000E+00  0.000E+00  0.000E+00  1.00017E+03  3.291E+00  4.772E+01  4.863E+00 -1.655E-01
   1   13    1     8     6    2.2837E+02 -1.8117E+00   2.3019E+02  0.000E+00  0.000E+00  0.000E+00  9.95178E+02  3.303E+00  4.789E+01  2.928E+00 -2.062E-01
   1    8    6     9     1    0.0000E+00  0.0000E+00   0.0000E+00  0.000E+00  0.000E+00  0.000E+00  1.07875E+03  0.000E+00  4.000E+00  0.000E+00  1.000E+00
   1    8    5     9     2    0.0000E+00  0.0000E+00   0.0000E+00  0.000E+00  0.000E+00  0.000E+00  1.07825E+03  0.000E+00  4.000E+00  0.000E+00  1.000E+00





UNSATURATED ZONE PACKAGE VOLUMETRIC BUDGET FOR  TIME STEP    30 STRESS PERIOD   40
  ------------------------------------------------------------------------------



     CUMULATIVE VOLUMES      L**3       RATES FOR THIS TIME STEP      L**3/T
     ------------------                 ------------------------

           IN:                                      IN:
           ---                                      ---
        INFILTRATION =  4276144721.2386          INFILTRATION =           0.8475

          OUT:                                     OUT:
          ----                                     ----
              UZF ET =  1295479999.3705                UZF ET =           0.7500
        UZF RECHARGE =  2716293710.6995          UZF RECHARGE =       0.0000E+00

            IN - OUT =   264371011.1687              IN - OUT =       9.7500E-02

          STORAGE:                                 STORAGE:
          --------                                 --------
      STORAGE CHANGE =   264363876.9800        STORAGE CHANGE =       9.7500E-02

 PERCENT DISCREPANCY IS DIFFERENCE BETWEEN IN-OUT MINUS CHANGE IN STORAGE
 DIVIDED BY THE AVERAGE OF IN AND OUT TIMES 100

 PERCENT DISCREPANCY =           0.00     PERCENT DISCREPANCY =           0.00






1
  VOLUMETRIC BUDGET FOR AGRICULTURAL FIELDS AT  END OF TIME STEP   30, STRESS PERIOD  40
  ------------------------------------------------------------------------------

     CUMULATIVE VOLUMES      L**3       RATES FOR THIS TIME STEP      L**3/T
     ------------------                 ------------------------

           IN:                                      IN:
           ---                                      ---
           AG WELLS      =  2651762432.0000             AG WELLS      =           0.0000
      DIVERSION SEGMENTS =  1537368064.0000        DIVERSION SEGMENTS =           0.0000
           GW IRRIGATION =           0.0000             GW IRRIGATION =           0.0000
           SW IRRIGATION =           0.0000             SW IRRIGATION =           0.0000
        SYSTEM LOSSES GW =           0.0000          SYSTEM LOSSES GW =           0.0000
        SYSTEM LOSSES SW =           0.0000          SYSTEM LOSSES SW =           0.0000

                TOTAL IN =  4189130496.0000                  TOTAL IN =           0.0000

          OUT:                                     OUT:
          ----                                     ----
           AG WELLS      =           0.0000             AG WELLS      =           0.0000
      DIVERSION SEGMENTS =           0.0000        DIVERSION SEGMENTS =           0.0000
           GW IRRIGATION =  2651762432.0000             GW IRRIGATION =           0.0000
           SW IRRIGATION =  1537396352.0000             SW IRRIGATION =           0.0000
        SYSTEM LOSSES GW =           0.0000          SYSTEM LOSSES GW =           0.0000
        SYSTEM LOSSES SW =           0.0000          SYSTEM LOSSES SW =           0.0000

               TOTAL OUT =  4189158912.0000                 TOTAL OUT =           0.0000

                IN - OUT =      -28416.0000                  IN - OUT =           0.0000

     PERCENT DISCREPANCY =          -0.00         PERCENT DISCREPANCY =           0.00



1
  VOLUMETRIC BUDGET FOR ENTIRE MODEL AT END OF TIME STEP   30, STRESS PERIOD  40
  ------------------------------------------------------------------------------

     CUMULATIVE VOLUMES      L**3       RATES FOR THIS TIME STEP      L**3/T
     ------------------                 ------------------------

           IN:                                      IN:
           ---                                      ---
             STORAGE     =  2672208128.0000               STORAGE     =           2.9740
       CONSTANT HEAD     =           0.0000         CONSTANT HEAD     =           0.0000
     HEAD DEP BOUNDS     =    29380620.0000       HEAD DEP BOUNDS     =           0.2865
      STREAM LEAKAGE     =  1228055040.0000        STREAM LEAKAGE     =          13.4497
        UZF RECHARGE     =  2716292608.0000          UZF RECHARGE     =           0.0000
               GW ET     =           0.0000                 GW ET     =           0.0000
     SURFACE LEAKAGE     =           0.0000       SURFACE LEAKAGE     =           0.0000
           AG WELLS      =           0.0000             AG WELLS      =           0.0000

                TOTAL IN =  6645936128.0000                  TOTAL IN =          16.7102

          OUT:                                     OUT:
          ----                                     ----
             STORAGE     =  2863399168.0000               STORAGE     =           6.2728
       CONSTANT HEAD     =           0.0000         CONSTANT HEAD     =           0.0000
     HEAD DEP BOUNDS     =    29733616.0000       HEAD DEP BOUNDS     =           0.2963
      STREAM LEAKAGE     =  1100921728.0000        STREAM LEAKAGE     =          10.1383
        UZF RECHARGE     =           0.0000          UZF RECHARGE     =           0.0000
               GW ET     =      156984.7969                 GW ET     =       3.8679E-03
     SURFACE LEAKAGE     =           0.0000       SURFACE LEAKAGE     =           0.0000
           AG WELLS      =  2651762432.0000             AG WELLS      =           0.0000

               TOTAL OUT =  6645974016.0000                 TOTAL OUT =          16.7112

                IN - OUT =      -37888.0000                  IN - OUT =      -9.3842E-04

     PERCENT DISCREPANCY =          -0.00         PERCENT DISCREPANCY =          -0.01






         TIME SUMMARY AT END OF TIME STEP   30 IN STRESS PERIOD   40
                    SECONDS     MINUTES      HOURS       DAYS        YEARS
                    -----------------------------------------------------------
   TIME STEP LENGTH  87667.      1461.1      24.352      1.0147     2.77799E-03
 STRESS PERIOD TIME 2.63000E+06  43833.      730.56      30.440     8.33397E-02
         TOTAL TIME 1.02656E+08 1.71093E+06  28515.      1188.1      3.2530    
1
1
                            STRESS PERIOD NO.   41, LENGTH =   2630000.    
                            -----------------------------------------------

                              NUMBER OF TIME STEPS =    30

                               MULTIPLIER FOR DELT =     1.000

                            INITIAL TIME STEP SIZE =   87666.66    

 REUSING NON-PARAMETER GHB CELLS FROM LAST STRESS PERIOD

      2 GHB CELLS

 REUSING STREAM SEGMENT DATA FROM LAST STRESS PERIOD



            AREAL INFILTRATION RATE
 READING ON UNIT   19 WITH FORMAT: (FREE)              

            1           2           3           4           5           6           7           8           9          10
 ........................................................................................................................
   1   1.0000E-10  2.0000E-10   0.000       0.000       0.000       0.000       0.000       0.000       0.000       0.000    
   2   2.0000E-10  1.0000E-10  2.0000E-10   0.000       0.000      8.0000E-10  8.0000E-10  5.0000E-10   0.000       0.000    
   3    0.000      5.0000E-10  1.0000E-10  1.0000E-10  8.0000E-10  8.0000E-10  5.0000E-10  5.0000E-10   0.000       0.000    
   4   8.0000E-10  5.0000E-10  1.0000E-10  1.0000E-10  1.0000E-10  1.0000E-10  1.0000E-10  1.0000E-10  2.0000E-10   0.000    
   5   8.0000E-10  5.0000E-10  1.0000E-10  1.0000E-10  1.0000E-10  1.0000E-10  1.0000E-10  1.0000E-10  1.0000E-10  1.0000E-10
   6   8.0000E-10  5.0000E-10  5.0000E-10  2.0000E-10  2.0000E-10  1.0000E-10  1.0000E-10  1.0000E-10  1.0000E-10  5.0000E-10
   7   8.0000E-10  5.0000E-10  5.0000E-10  2.0000E-10  2.0000E-10  1.0000E-10  1.0000E-10  2.0000E-10  2.0000E-10   0.000    
   8    0.000      5.0000E-10  5.0000E-10  2.0000E-10  2.0000E-10  1.0000E-10  1.0000E-10  2.0000E-10  5.0000E-10   0.000    
   9    0.000      5.0000E-10  5.0000E-10  2.0000E-10  2.0000E-10  1.0000E-10  1.0000E-10  2.0000E-10  5.0000E-10   0.000    
  10    0.000      5.0000E-10  5.0000E-10  2.0000E-10  2.0000E-10  1.0000E-10  1.0000E-10  2.0000E-10  5.0000E-10  8.0000E-10
  11    0.000      1.0000E-10  1.0000E-10  1.0000E-10  1.0000E-10  1.0000E-10  1.0000E-10  2.0000E-10  5.0000E-10   0.000    
  12   1.0000E-10  1.0000E-10  1.0000E-10  1.0000E-10  1.0000E-10  1.0000E-10  1.0000E-10  1.0000E-10  2.0000E-10   0.000    
  13   1.0000E-10  1.0000E-10  2.0000E-10  2.0000E-10  2.0000E-10  2.0000E-10  2.0000E-10  1.0000E-10  1.0000E-10   0.000    
  14    0.000      2.0000E-10  5.0000E-10  5.0000E-10  5.0000E-10  5.0000E-10  5.0000E-10  2.0000E-10  1.0000E-10   0.000    
  15    0.000       0.000      8.0000E-10  8.0000E-10  8.0000E-10  8.0000E-10   0.000       0.000       0.000       0.000    

                  ET RATE =  2.500000E-08

 USING ET EXTINCTION DEPTH FROM PREVIOUS STRESS PERIOD. CURRENT PERIOD IS:      41

 USING EXTINCTION WATER CONTENT FROM PREVIOUS STRESS PERIOD. CURRENT PERIOD IS:      41

 USING AIR ENTRY PRESSURE FROM PREVIOUS STRESS PERIOD. CURRENT PERIOD IS:      41

 USING ROOT PRESSURE HEAD FROM PREVIOUS STRESS PERIOD. CURRENT PERIOD IS:      41

 USING ROOT ACTIVITY FROM PREVIOUS STRESS PERIOD. CURRENT PERIOD IS:      41

 PROCESSING AG STRESS PERIOD DATA

 READING AG STRESS PERIOD DATA

 READING IRRIGATION SEGMENT

 READING IRRIGATION WELL

 READING SUPPLEMENTAL WELL

 END PROCESSING AG STRESS PERIOD DATA OPTIONS
 
 SOLVING FOR HEAD 
                                                   Max.-Head-Change                         Max.-Flux-Residual
  Residual-Control   Outer-Iter.   Inner-Iter.     Column Row Layer    Maximum-Head-Change  Column Row Layer    Maximum-Flux-Residual          L2-NORM 
          0                 1           2             4    7     1      -0.7423318117E-02       4    7    1        -0.3898623676E+00      0.1216564859E+01
          0                 2           2             4    7     1       0.7220852029E-03       4    7    1         0.3898615521E-01      0.1216428950E+00
          0                 3           1             4    7     1      -0.4917133715E-04       4    7    1        -0.2729032813E-02      0.8513763266E-02

    ------------------------------------------------
       NWT REQUIRED            3 OUTER ITERATIONS 
       AND A TOTAL OF          5 INNER ITERATIONS.
    ------------------------------------------------

 NO OUTPUT CONTROL FOR STRESS PERIOD   41   TIME STEP    1
 
 SOLVING FOR HEAD 
                                                   Max.-Head-Change                         Max.-Flux-Residual
  Residual-Control   Outer-Iter.   Inner-Iter.     Column Row Layer    Maximum-Head-Change  Column Row Layer    Maximum-Flux-Residual          L2-NORM 
          0                 1           2             4    7     1      -0.7344528693E-02       4    7    1        -0.3857110400E+00      0.1203812288E+01
          0                 2           2             4    7     1       0.7144211693E-03       4    7    1         0.3857102440E-01      0.1203668010E+00
          0                 3           1             4    7     1      -0.4864944443E-04       4    7    1        -0.2699973620E-02      0.8424352853E-02

    ------------------------------------------------
       NWT REQUIRED            3 OUTER ITERATIONS 
       AND A TOTAL OF          5 INNER ITERATIONS.
    ------------------------------------------------

 NO OUTPUT CONTROL FOR STRESS PERIOD   41   TIME STEP    2
 
 SOLVING FOR HEAD 
                                                   Max.-Head-Change                         Max.-Flux-Residual
  Residual-Control   Outer-Iter.   Inner-Iter.     Column Row Layer    Maximum-Head-Change  Column Row Layer    Maximum-Flux-Residual          L2-NORM 
          0                 1           2             4    7     1      -0.7266982678E-02       4    7    1        -0.3816258683E+00      0.1191763441E+01
          0                 2           2             4    7     1       0.7069078930E-03       4    7    1         0.3816250912E-01      0.1191705538E+00
          0                 3           1             4    7     1      -0.4813781787E-04       4    7    1        -0.2671377519E-02      0.8340690843E-02

    ------------------------------------------------
       NWT REQUIRED            3 OUTER ITERATIONS 
       AND A TOTAL OF          5 INNER ITERATIONS.
    ------------------------------------------------

 NO OUTPUT CONTROL FOR STRESS PERIOD   41   TIME STEP    3
 
 SOLVING FOR HEAD 
                                                   Max.-Head-Change                         Max.-Flux-Residual
  Residual-Control   Outer-Iter.   Inner-Iter.     Column Row Layer    Maximum-Head-Change  Column Row Layer    Maximum-Flux-Residual          L2-NORM 
          0                 1           2             4    7     1      -0.7190286921E-02       4    7    1        -0.3775886993E+00      0.1173044157E+01
          0                 2           2             4    7     1       0.6994177073E-03       4    7    1         0.3775879405E-01      0.1173012942E+00
          0                 3           1             4    7     1      -0.4762776402E-04       4    7    1        -0.2643117440E-02      0.8210793779E-02

    ------------------------------------------------
       NWT REQUIRED            3 OUTER ITERATIONS 
       AND A TOTAL OF          5 INNER ITERATIONS.
    ------------------------------------------------

 NO OUTPUT CONTROL FOR STRESS PERIOD   41   TIME STEP    4
 
 SOLVING FOR HEAD 
                                                   Max.-Head-Change                         Max.-Flux-Residual
  Residual-Control   Outer-Iter.   Inner-Iter.     Column Row Layer    Maximum-Head-Change  Column Row Layer    Maximum-Flux-Residual          L2-NORM 
          0                 1           2             4    7     1      -0.7114885829E-02       4   13    1        -0.3919565310E+00      0.1235833797E+01
          0                 2           2             4    7     1       0.6920832641E-03       4   13    1         0.3890862918E-01      0.1228773969E+00
          0                 3           1             4    7     1      -0.4712831525E-04       4   13    1        -0.2696093200E-02      0.8537179560E-02

    ------------------------------------------------
       NWT REQUIRED            3 OUTER ITERATIONS 
       AND A TOTAL OF          5 INNER ITERATIONS.
    ------------------------------------------------

 NO OUTPUT CONTROL FOR STRESS PERIOD   41   TIME STEP    5
 
 SOLVING FOR HEAD 
                                                   Max.-Head-Change                         Max.-Flux-Residual
  Residual-Control   Outer-Iter.   Inner-Iter.     Column Row Layer    Maximum-Head-Change  Column Row Layer    Maximum-Flux-Residual          L2-NORM 
          0                 1           2             4    7     1      -0.7040445542E-02       4    7    1        -0.3696892954E+00      0.1197394312E+01
          0                 2           2             4    7     1       0.6848422801E-03       4    7    1         0.3696885723E-01      0.1191533365E+00
          0                 3           1             4    7     1      -0.4663523039E-04       4    7    1        -0.2587821798E-02      0.8287323489E-02

    ------------------------------------------------
       NWT REQUIRED            3 OUTER ITERATIONS 
       AND A TOTAL OF          5 INNER ITERATIONS.
    ------------------------------------------------

 NO OUTPUT CONTROL FOR STRESS PERIOD   41   TIME STEP    6
 
 SOLVING FOR HEAD 
                                                   Max.-Head-Change                         Max.-Flux-Residual
  Residual-Control   Outer-Iter.   Inner-Iter.     Column Row Layer    Maximum-Head-Change  Column Row Layer    Maximum-Flux-Residual          L2-NORM 
          0                 1           2             4    7     1      -0.6966954267E-02       4    7    1        -0.3658147422E+00      0.1164480430E+01
          0                 2           2             4    7     1       0.6776936091E-03       4    7    1         0.3658140364E-01      0.1159633602E+00
          0                 3           1             4    7     1      -0.4614843252E-04       4    7    1        -0.2560700024E-02      0.8073253829E-02

    ------------------------------------------------
       NWT REQUIRED            3 OUTER ITERATIONS 
       AND A TOTAL OF          5 INNER ITERATIONS.
    ------------------------------------------------

 NO OUTPUT CONTROL FOR STRESS PERIOD   41   TIME STEP    7
 
 SOLVING FOR HEAD 
                                                   Max.-Head-Change                         Max.-Flux-Residual
  Residual-Control   Outer-Iter.   Inner-Iter.     Column Row Layer    Maximum-Head-Change  Column Row Layer    Maximum-Flux-Residual          L2-NORM 
          0                 1           2             4    7     1      -0.6894665579E-02       4    7    1        -0.3620042767E+00      0.1136177239E+01
          0                 2           2             4    7     1       0.6706619160E-03       4    7    1         0.3620035876E-01      0.1132179838E+00
          0                 3           1             4    7     1      -0.4566960013E-04       4    7    1        -0.2534026864E-02      0.7888779745E-02

    ------------------------------------------------
       NWT REQUIRED            3 OUTER ITERATIONS 
       AND A TOTAL OF          5 INNER ITERATIONS.
    ------------------------------------------------

 NO OUTPUT CONTROL FOR STRESS PERIOD   41   TIME STEP    8
 
 SOLVING FOR HEAD 
                                                   Max.-Head-Change                         Max.-Flux-Residual
  Residual-Control   Outer-Iter.   Inner-Iter.     Column Row Layer    Maximum-Head-Change  Column Row Layer    Maximum-Flux-Residual          L2-NORM 
          0                 1           2             4    7     1      -0.6823274161E-02       4    7    1        -0.3582412827E+00      0.1111668048E+01
          0                 2           2             4    7     1       0.6637175020E-03       4    7    1         0.3582406099E-01      0.1108404041E+00
          0                 3           1             4    7     1      -0.4519671131E-04       4    7    1        -0.2507685997E-02      0.7731209532E-02

    ------------------------------------------------
       NWT REQUIRED            3 OUTER ITERATIONS 
       AND A TOTAL OF          5 INNER ITERATIONS.
    ------------------------------------------------

 NO OUTPUT CONTROL FOR STRESS PERIOD   41   TIME STEP    9
 
 SOLVING FOR HEAD 
                                                   Max.-Head-Change                         Max.-Flux-Residual
  Residual-Control   Outer-Iter.   Inner-Iter.     Column Row Layer    Maximum-Head-Change  Column Row Layer    Maximum-Flux-Residual          L2-NORM 
          0                 1           2             4    7     1      -0.6753040061E-02       4    7    1        -0.3545396931E+00      0.1090323109E+01
          0                 2           2             4    7     1       0.6568856627E-03       4    7    1         0.3545390360E-01      0.1087630365E+00
          0                 3           1             4    7     1      -0.4473148787E-04       4    7    1        -0.2481774945E-02      0.7588642116E-02

    ------------------------------------------------
       NWT REQUIRED            3 OUTER ITERATIONS 
       AND A TOTAL OF          5 INNER ITERATIONS.
    ------------------------------------------------

 NO OUTPUT CONTROL FOR STRESS PERIOD   41   TIME STEP   10
 
 SOLVING FOR HEAD 
                                                   Max.-Head-Change                         Max.-Flux-Residual
  Residual-Control   Outer-Iter.   Inner-Iter.     Column Row Layer    Maximum-Head-Change  Column Row Layer    Maximum-Flux-Residual          L2-NORM 
          0                 1           2             4    7     1      -0.6683937958E-02       4    7    1        -0.3508981093E+00      0.1071573553E+01
          0                 2           2             4    7     1       0.6501639354E-03       4    7    1         0.3508974676E-01      0.1069377016E+00
          0                 3           1             4    7     1      -0.4427376295E-04       4    7    1        -0.2456283947E-02      0.7465720289E-02

    ------------------------------------------------
       NWT REQUIRED            3 OUTER ITERATIONS 
       AND A TOTAL OF          5 INNER ITERATIONS.
    ------------------------------------------------

 NO OUTPUT CONTROL FOR STRESS PERIOD   41   TIME STEP   11
 
 SOLVING FOR HEAD 
                                                   Max.-Head-Change                         Max.-Flux-Residual
  Residual-Control   Outer-Iter.   Inner-Iter.     Column Row Layer    Maximum-Head-Change  Column Row Layer    Maximum-Flux-Residual          L2-NORM 
          0                 1           2             4    7     1      -0.6615391694E-02       4    7    1        -0.3472854571E+00      0.1054960135E+01
          0                 2           2             4    7     1       0.6434962757E-03       4    7    1         0.3472848306E-01      0.1053166243E+00
          0                 3           1             4    7     1      -0.4381971995E-04       4    7    1        -0.2430995453E-02      0.7355812391E-02

    ------------------------------------------------
       NWT REQUIRED            3 OUTER ITERATIONS 
       AND A TOTAL OF          5 INNER ITERATIONS.
    ------------------------------------------------

 NO OUTPUT CONTROL FOR STRESS PERIOD   41   TIME STEP   12
 
 SOLVING FOR HEAD 
                                                   Max.-Head-Change                         Max.-Flux-Residual
  Residual-Control   Outer-Iter.   Inner-Iter.     Column Row Layer    Maximum-Head-Change  Column Row Layer    Maximum-Flux-Residual          L2-NORM 
          0                 1           2             4    7     1      -0.6548222403E-02       4    7    1        -0.3437462672E+00      0.1040115600E+01
          0                 2           2             4    7     1       0.6369625570E-03       4    7    1         0.3437456552E-01      0.1038656446E+00
          0                 3           1             4    7     1      -0.4337479786E-04       4    7    1        -0.2406221214E-02      0.7257048135E-02

    ------------------------------------------------
       NWT REQUIRED            3 OUTER ITERATIONS 
       AND A TOTAL OF          5 INNER ITERATIONS.
    ------------------------------------------------

 NO OUTPUT CONTROL FOR STRESS PERIOD   41   TIME STEP   13
 
 SOLVING FOR HEAD 
                                                   Max.-Head-Change                         Max.-Flux-Residual
  Residual-Control   Outer-Iter.   Inner-Iter.     Column Row Layer    Maximum-Head-Change  Column Row Layer    Maximum-Flux-Residual          L2-NORM 
          0                 1           2             4    7     1      -0.6481567106E-02       4    7    1        -0.3402338306E+00      0.1026715647E+01
          0                 2           2             4    7     1       0.6304788351E-03       4    7    1         0.3402332329E-01      0.1025533047E+00
          0                 3           1             4    7     1      -0.4293327985E-04       4    7    1        -0.2381634202E-02      0.7167758858E-02

    ------------------------------------------------
       NWT REQUIRED            3 OUTER ITERATIONS 
       AND A TOTAL OF          5 INNER ITERATIONS.
    ------------------------------------------------

 NO OUTPUT CONTROL FOR STRESS PERIOD   41   TIME STEP   14
 
 SOLVING FOR HEAD 
                                                   Max.-Head-Change                         Max.-Flux-Residual
  Residual-Control   Outer-Iter.   Inner-Iter.     Column Row Layer    Maximum-Head-Change  Column Row Layer    Maximum-Flux-Residual          L2-NORM 
          0                 1           2             4    7     1      -0.6416255193E-02       4    7    1        -0.3367926856E+00      0.1014526754E+01
          0                 2           2             4    7     1       0.6241257873E-03       4    7    1         0.3367921013E-01      0.1013568789E+00
          0                 3           1             4    7     1      -0.4250066076E-04       4    7    1        -0.2357546266E-02      0.7086705980E-02

    ------------------------------------------------
       NWT REQUIRED            3 OUTER ITERATIONS 
       AND A TOTAL OF          5 INNER ITERATIONS.
    ------------------------------------------------

 NO OUTPUT CONTROL FOR STRESS PERIOD   41   TIME STEP   15
 
 SOLVING FOR HEAD 
                                                   Max.-Head-Change                         Max.-Flux-Residual
  Residual-Control   Outer-Iter.   Inner-Iter.     Column Row Layer    Maximum-Head-Change  Column Row Layer    Maximum-Flux-Residual          L2-NORM 
          0                 1           2             4    7     1      -0.6351419079E-02       4    7    1        -0.3333765535E+00      0.1003312968E+01
          0                 2           2             4    7     1       0.6178190216E-03       4    7    1         0.3333759829E-01      0.1002540988E+00
          0                 3           1             4    7     1      -0.4207119296E-04       4    7    1        -0.2333633410E-02      0.7010817771E-02

    ------------------------------------------------
       NWT REQUIRED            3 OUTER ITERATIONS 
       AND A TOTAL OF          5 INNER ITERATIONS.
    ------------------------------------------------

 NO OUTPUT CONTROL FOR STRESS PERIOD   41   TIME STEP   16
 
 SOLVING FOR HEAD 
                                                   Max.-Head-Change                         Max.-Flux-Residual
  Residual-Control   Outer-Iter.   Inner-Iter.     Column Row Layer    Maximum-Head-Change  Column Row Layer    Maximum-Flux-Residual          L2-NORM 
          0                 1           2             4    7     1      -0.6287886455E-02       4    7    1        -0.3300297313E+00      0.9929349928E+00
          0                 2           2             4    7     1       0.6116390497E-03       4    7    1         0.3300291737E-01      0.9923157075E-01
          0                 3           1             4    7     1      -0.4165036020E-04       4    7    1        -0.2310205759E-02      0.6940620907E-02

    ------------------------------------------------
       NWT REQUIRED            3 OUTER ITERATIONS 
       AND A TOTAL OF          5 INNER ITERATIONS.
    ------------------------------------------------

 NO OUTPUT CONTROL FOR STRESS PERIOD   41   TIME STEP   17
 
 SOLVING FOR HEAD 
                                                   Max.-Head-Change                         Max.-Flux-Residual
  Residual-Control   Outer-Iter.   Inner-Iter.     Column Row Layer    Maximum-Head-Change  Column Row Layer    Maximum-Flux-Residual          L2-NORM 
          0                 1           2             4    7     1      -0.6225067453E-02       4    7    1        -0.3267207343E+00      0.9832332403E+00
          0                 2           2             4    7     1       0.6055284925E-03       4    7    1         0.3267201893E-01      0.9827338345E-01
          0                 3           1             4    7     1      -0.4123425379E-04       4    7    1        -0.2287042834E-02      0.6874662224E-02

    ------------------------------------------------
       NWT REQUIRED            3 OUTER ITERATIONS 
       AND A TOTAL OF          5 INNER ITERATIONS.
    ------------------------------------------------

 NO OUTPUT CONTROL FOR STRESS PERIOD   41   TIME STEP   18
 
 SOLVING FOR HEAD 
                                                   Max.-Head-Change                         Max.-Flux-Residual
  Residual-Control   Outer-Iter.   Inner-Iter.     Column Row Layer    Maximum-Head-Change  Column Row Layer    Maximum-Flux-Residual          L2-NORM 
          0                 1           2             4    7     1      -0.6162952981E-02       4    7    1        -0.3234487384E+00      0.9740936873E+00
          0                 2           2             4    7     1       0.5994864665E-03       4    7    1         0.3234482058E-01      0.9736927165E-01
          0                 3           1             4    7     1      -0.4082281340E-04       4    7    1        -0.2264138908E-02      0.6811880842E-02

    ------------------------------------------------
       NWT REQUIRED            3 OUTER ITERATIONS 
       AND A TOTAL OF          5 INNER ITERATIONS.
    ------------------------------------------------

 NO OUTPUT CONTROL FOR STRESS PERIOD   41   TIME STEP   19
 
 SOLVING FOR HEAD 
                                                   Max.-Head-Change                         Max.-Flux-Residual
  Residual-Control   Outer-Iter.   Inner-Iter.     Column Row Layer    Maximum-Head-Change  Column Row Layer    Maximum-Flux-Residual          L2-NORM 
          0                 1           2             4    7     1      -0.6101807957E-02       4    7    1        -0.3202281514E+00      0.9654452456E+00
          0                 2           2             4    7     1       0.5935387411E-03       4    7    1         0.3202276307E-01      0.9651272410E-01
          0                 3           1             4    7     1      -0.4041779538E-04       4    7    1        -0.2241594878E-02      0.6753034035E-02

    ------------------------------------------------
       NWT REQUIRED            3 OUTER ITERATIONS 
       AND A TOTAL OF          5 INNER ITERATIONS.
    ------------------------------------------------

 NO OUTPUT CONTROL FOR STRESS PERIOD   41   TIME STEP   20
 
 SOLVING FOR HEAD 
                                                   Max.-Head-Change                         Max.-Flux-Residual
  Residual-Control   Outer-Iter.   Inner-Iter.     Column Row Layer    Maximum-Head-Change  Column Row Layer    Maximum-Flux-Residual          L2-NORM 
          0                 1           2             4    7     1      -0.6041335778E-02       4    7    1        -0.3170429504E+00      0.9571960532E+00
          0                 2           2             4    7     1       0.5876564650E-03       4    7    1         0.3170424418E-01      0.9569401416E-01
          0                 3           1             4    7     1      -0.4001723415E-04       4    7    1        -0.2219298527E-02      0.6696183364E-02

    ------------------------------------------------
       NWT REQUIRED            3 OUTER ITERATIONS 
       AND A TOTAL OF          5 INNER ITERATIONS.
    ------------------------------------------------

 NO OUTPUT CONTROL FOR STRESS PERIOD   41   TIME STEP   21
 
 SOLVING FOR HEAD 
                                                   Max.-Head-Change                         Max.-Flux-Residual
  Residual-Control   Outer-Iter.   Inner-Iter.     Column Row Layer    Maximum-Head-Change  Column Row Layer    Maximum-Flux-Residual          L2-NORM 
          0                 1           2             4    7     1      -0.5981797088E-02       4    7    1        -0.3139075151E+00      0.9492894246E+00
          0                 2           2             4    7     1       0.5818649907E-03       4    7    1         0.3139070178E-01      0.9490880750E-01
          0                 3           1             4    7     1      -0.3962285601E-04       4    7    1        -0.2197350534E-02      0.6641596215E-02

    ------------------------------------------------
       NWT REQUIRED            3 OUTER ITERATIONS 
       AND A TOTAL OF          5 INNER ITERATIONS.
    ------------------------------------------------

 NO OUTPUT CONTROL FOR STRESS PERIOD   41   TIME STEP   22
 
 SOLVING FOR HEAD 
                                                   Max.-Head-Change                         Max.-Flux-Residual
  Residual-Control   Outer-Iter.   Inner-Iter.     Column Row Layer    Maximum-Head-Change  Column Row Layer    Maximum-Flux-Residual          L2-NORM 
          0                 1           2             4    7     1      -0.5923169940E-02       4    7    1        -0.3108204802E+00      0.9416816665E+00
          0                 2           2             4    7     1       0.5761621849E-03       4    7    1         0.3108199941E-01      0.9415233338E-01
          0                 3           1             4    7     1      -0.3923451588E-04       4    7    1        -0.2175741361E-02      0.6589086819E-02

    ------------------------------------------------
       NWT REQUIRED            3 OUTER ITERATIONS 
       AND A TOTAL OF          5 INNER ITERATIONS.
    ------------------------------------------------

 NO OUTPUT CONTROL FOR STRESS PERIOD   41   TIME STEP   23
 
 SOLVING FOR HEAD 
                                                   Max.-Head-Change                         Max.-Flux-Residual
  Residual-Control   Outer-Iter.   Inner-Iter.     Column Row Layer    Maximum-Head-Change  Column Row Layer    Maximum-Flux-Residual          L2-NORM 
          0                 1           2             4    7     1      -0.5865160007E-02       4    7    1        -0.3077658295E+00      0.9343193237E+00
          0                 2           2             4    7     1       0.5705194162E-03       4    7    1         0.3077653542E-01      0.9341959393E-01
          0                 3           1             4    7     1      -0.3885026428E-04       4    7    1        -0.2154358858E-02      0.6538251531E-02

    ------------------------------------------------
       NWT REQUIRED            3 OUTER ITERATIONS 
       AND A TOTAL OF          5 INNER ITERATIONS.
    ------------------------------------------------

 NO OUTPUT CONTROL FOR STRESS PERIOD   41   TIME STEP   24
 
 SOLVING FOR HEAD 
                                                   Max.-Head-Change                         Max.-Flux-Residual
  Residual-Control   Outer-Iter.   Inner-Iter.     Column Row Layer    Maximum-Head-Change  Column Row Layer    Maximum-Flux-Residual          L2-NORM 
          0                 1           2             4    7     1      -0.5808032841E-02       4    7    1        -0.3047580596E+00      0.9271824912E+00
          0                 2           2             4    7     1       0.5649625165E-03       4    7    1         0.3047575947E-01      0.9270824535E-01
          0                 3           1             4    7     1      -0.3847185969E-04       4    7    1        -0.2133304526E-02      0.6488725297E-02

    ------------------------------------------------
       NWT REQUIRED            3 OUTER ITERATIONS 
       AND A TOTAL OF          5 INNER ITERATIONS.
    ------------------------------------------------

 NO OUTPUT CONTROL FOR STRESS PERIOD   41   TIME STEP   25
 
 SOLVING FOR HEAD 
                                                   Max.-Head-Change                         Max.-Flux-Residual
  Residual-Control   Outer-Iter.   Inner-Iter.     Column Row Layer    Maximum-Head-Change  Column Row Layer    Maximum-Flux-Residual          L2-NORM 
          0                 1           2             4    7     1      -0.5751492697E-02       4    7    1        -0.3017811823E+00      0.9202357856E+00
          0                 2           2             4    7     1       0.5594627173E-03       4    7    1         0.3017807276E-01      0.9201610091E-01
          0                 3           1             4    7     1      -0.3809734341E-04       4    7    1        -0.2112466430E-02      0.6440346167E-02

    ------------------------------------------------
       NWT REQUIRED            3 OUTER ITERATIONS 
       AND A TOTAL OF          5 INNER ITERATIONS.
    ------------------------------------------------

 NO OUTPUT CONTROL FOR STRESS PERIOD   41   TIME STEP   26
 
 SOLVING FOR HEAD 
                                                   Max.-Head-Change                         Max.-Flux-Residual
  Residual-Control   Outer-Iter.   Inner-Iter.     Column Row Layer    Maximum-Head-Change  Column Row Layer    Maximum-Flux-Residual          L2-NORM 
          0                 1           2             4    7     1      -0.5695821795E-02       4    7    1        -0.2988496199E+00      0.9132783222E+00
          0                 2           2             4    7     1       0.5540474716E-03       4    7    1         0.2988491752E-01      0.9127681166E-01
          0                 3           1             4    7     1      -0.3772858515E-04       4    7    1        -0.2091945547E-02      0.6384490817E-02

    ------------------------------------------------
       NWT REQUIRED            3 OUTER ITERATIONS 
       AND A TOTAL OF          5 INNER ITERATIONS.
    ------------------------------------------------

 NO OUTPUT CONTROL FOR STRESS PERIOD   41   TIME STEP   27
 
 SOLVING FOR HEAD 
                                                   Max.-Head-Change                         Max.-Flux-Residual
  Residual-Control   Outer-Iter.   Inner-Iter.     Column Row Layer    Maximum-Head-Change  Column Row Layer    Maximum-Flux-Residual          L2-NORM 
          0                 1           2             4    7     1      -0.5640762742E-02       4    7    1        -0.2959482494E+00      0.9499952239E+00
          0                 2           2             4    7     1       0.5486917426E-03       4    7    1         0.2959478149E-01      0.9461849813E-01
          0                 3           1             4    7     1      -0.3736387969E-04       4    7    1        -0.2071636023E-02      0.6588744526E-02

    ------------------------------------------------
       NWT REQUIRED            3 OUTER ITERATIONS 
       AND A TOTAL OF          5 INNER ITERATIONS.
    ------------------------------------------------

 NO OUTPUT CONTROL FOR STRESS PERIOD   41   TIME STEP   28
 
 SOLVING FOR HEAD 
                                                   Max.-Head-Change                         Max.-Flux-Residual
  Residual-Control   Outer-Iter.   Inner-Iter.     Column Row Layer    Maximum-Head-Change  Column Row Layer    Maximum-Flux-Residual          L2-NORM 
          0                 1           2             4    7     1      -0.5586579314E-02       4    7    1        -0.2930934812E+00      0.9310202941E+00
          0                 2           2             4    7     1       0.5434211871E-03       4    7    1         0.2930930565E-01      0.9278378409E-01
          0                 3           1             4    7     1      -0.3700497414E-04       4    7    1        -0.2051652686E-02      0.6465581101E-02

    ------------------------------------------------
       NWT REQUIRED            3 OUTER ITERATIONS 
       AND A TOTAL OF          5 INNER ITERATIONS.
    ------------------------------------------------

 NO OUTPUT CONTROL FOR STRESS PERIOD   41   TIME STEP   29
 
 SOLVING FOR HEAD 
                                                   Max.-Head-Change                         Max.-Flux-Residual
  Residual-Control   Outer-Iter.   Inner-Iter.     Column Row Layer    Maximum-Head-Change  Column Row Layer    Maximum-Flux-Residual          L2-NORM 
          0                 1           2             4    7     1      -0.5533249526E-02       4    7    1        -0.2902841132E+00      0.9142799849E+00
          0                 2           2             4    7     1       0.5382336663E-03       4    7    1         0.2902836975E-01      0.9116166263E-01
          0                 3           1             4    7     1      -0.3665172342E-04       4    7    1        -0.2031987147E-02      0.6356816384E-02

    ------------------------------------------------
       NWT REQUIRED            3 OUTER ITERATIONS 
       AND A TOTAL OF          5 INNER ITERATIONS.
    ------------------------------------------------

 NO OUTPUT CONTROL FOR STRESS PERIOD   41   TIME STEP   30



 STREAM LISTING     PERIOD     41   STEP       30

 LAYER ROW COL. STREAM  RCH.  FLOW INTO     FLOW TO   FLOW OUT OF   OVRLND.     DIRECT     STREAM       STREAM     STREAM     STREAM   STREAMBED  STREAMBED
                SEG.NO.  NO.  STRM. RCH.    AQUIFER    STRM. RCH.    RUNOFF     PRECIP       ET          HEAD       DEPTH      WIDTH   CONDCTNC.   GRADIENT

   1    1    1     1     1    4.7249E+01  3.2762E-01   4.6921E+01  0.000E+00  0.000E+00  0.000E+00  1.09443E+03  1.381E+00  1.662E+01  7.477E-02  1.460E+00
   1    2    2     1     2    4.6921E+01  5.0759E-01   4.6413E+01  0.000E+00  0.000E+00  0.000E+00  1.08944E+03  1.379E+00  1.656E+01  1.159E-01  1.460E+00
   1    3    3     1     3    4.6413E+01  4.3309E-01   4.5980E+01  0.000E+00  0.000E+00  0.000E+00  1.08379E+03  1.376E+00  1.650E+01  9.898E-02  1.459E+00
   1    3    4     1     4    4.5980E+01  3.9899E-01   4.5581E+01  0.000E+00  0.000E+00  0.000E+00  1.07878E+03  1.373E+00  1.644E+01  9.124E-02  1.458E+00
   1    4    5     2     1    4.3581E+01  3.6514E-01   4.3216E+01  0.000E+00  0.000E+00  0.000E+00  1.07362E+03  1.681E+00  1.200E+01  7.800E-02  1.560E+00
   1    5    6     2     2    4.3216E+01  2.8042E-01   4.2936E+01  0.000E+00  0.000E+00  0.000E+00  1.06818E+03  1.674E+00  1.200E+01  6.000E-02  1.558E+00
   1    6    6     2     3    4.2936E+01  2.8003E-01   4.2656E+01  0.000E+00  0.000E+00  0.000E+00  1.06346E+03  1.667E+00  1.200E+01  6.000E-02  1.556E+00
   1    7    6     2     4    4.2656E+01  2.7964E-01   4.2376E+01  0.000E+00  0.000E+00  0.000E+00  1.05874E+03  1.661E+00  1.200E+01  6.000E-02  1.554E+00
   1    8    6     2     5    4.2376E+01  2.7924E-01   4.2097E+01  0.000E+00  0.000E+00  0.000E+00  1.05401E+03  1.654E+00  1.200E+01  6.000E-02  1.551E+00
   1    3    5     3     1    2.0000E+00  2.8252E-01   1.7175E+00  0.000E+00  0.000E+00  0.000E+00  1.07555E+03  1.909E+00  9.636E+00  7.227E-02  1.955E+00
   1    3    6     3     2    1.7175E+00  2.4905E-01   1.4684E+00  0.000E+00  0.000E+00  0.000E+00  1.07264E+03  1.727E+00  8.909E+00  6.682E-02  1.864E+00
   1    3    7     3     3    1.4684E+00  1.9718E-01   1.2712E+00  0.000E+00  0.000E+00  0.000E+00  1.06987E+03  1.555E+00  8.218E+00  5.547E-02  1.777E+00
   1    4    8     3     4    1.2712E+00  2.2567E-01   1.0456E+00  0.000E+00  0.000E+00  0.000E+00  1.06682E+03  1.364E+00  7.455E+00  6.709E-02  1.682E+00
   1    5    8     3     5    1.0456E+00  1.5790E-01   8.8768E-01  0.000E+00  0.000E+00  0.000E+00  1.06362E+03  1.164E+00  6.655E+00  4.991E-02  1.582E+00
   1    6    8     3     6    8.8768E-01  5.5980E-02   8.3170E-01  0.000E+00  0.000E+00  0.000E+00  1.06158E+03  1.036E+00  6.145E+00  1.844E-02  1.518E+00
   1    5   10     4     1    1.0000E+01  9.0919E-02   9.9091E+00  0.000E+00  0.000E+00  0.000E+00  1.07836E+03  6.368E-01  1.000E+01  2.500E-02  1.212E+00
   1    5    9     4     2    9.9091E+00  1.8158E-01   9.7275E+00  0.000E+00  0.000E+00  0.000E+00  1.07154E+03  6.315E-01  1.000E+01  5.000E-02  1.211E+00
   1    6    8     4     3    9.7275E+00  1.2689E-01   9.6006E+00  0.000E+00  0.000E+00  0.000E+00  1.06381E+03  6.256E-01  1.000E+01  3.500E-02  1.209E+00
   1    6    8     5     1    1.0432E+01  2.2686E-01   1.0205E+01  0.000E+00  0.000E+00  0.000E+00  1.05868E+03  6.790E-01  1.542E+01  6.166E-02  1.226E+00
   1    7    7     5     2    1.0205E+01  2.7894E-01   9.9265E+00  0.000E+00  0.000E+00  0.000E+00  1.05417E+03  6.732E-01  1.519E+01  7.594E-02  1.224E+00
   1    8    7     5     3    9.9265E+00  1.9221E-01   9.7343E+00  0.000E+00  0.000E+00  0.000E+00  1.04992E+03  6.676E-01  1.497E+01  5.241E-02  1.223E+00
   1    8    6     5     4    9.7343E+00  1.3577E-01   9.5985E+00  0.000E+00  0.000E+00  0.000E+00  1.04691E+03  6.637E-01  1.482E+01  3.706E-02  1.221E+00
   1    9    6     6     1    5.1695E+01  2.9310E-01   5.1402E+01  0.000E+00  0.000E+00  0.000E+00  1.04461E+03  1.885E+00  1.200E+01  6.000E-02  1.628E+00
   1   10    7     6     2    5.1402E+01  2.9271E-01   5.1110E+01  0.000E+00  0.000E+00  0.000E+00  1.04006E+03  1.879E+00  1.200E+01  6.000E-02  1.626E+00
   1   11    7     6     3    5.1110E+01  2.9233E-01   5.0817E+01  0.000E+00  0.000E+00  0.000E+00  1.03551E+03  1.872E+00  1.200E+01  6.000E-02  1.624E+00
   1   12    7     6     4    5.0817E+01  2.9194E-01   5.0525E+01  0.000E+00  0.000E+00  0.000E+00  1.03096E+03  1.866E+00  1.200E+01  6.000E-02  1.622E+00
   1   13    7     6     5    5.0525E+01  1.4736E-02   5.0511E+01  0.000E+00  0.000E+00  0.000E+00  1.02777E+03  1.862E+00  1.200E+01  2.400E-02  2.047E-01
   1   14    9     7     1    1.5000E+02  1.3468E+00   1.4865E+02  0.000E+00  0.000E+00  0.000E+00  1.03987E+03  2.288E+00  5.529E+01  5.593E-01  8.027E-01
   1   13    8     7     2    1.4865E+02  1.8343E+00   1.4682E+02  0.000E+00  0.000E+00  0.000E+00  1.03478E+03  2.279E+00  5.526E+01  6.148E-01  9.946E-01
   1   13    7     7     3    1.4682E+02  1.4143E+00   1.4540E+02  0.000E+00  0.000E+00  0.000E+00  1.02969E+03  2.271E+00  5.522E+01  5.585E-01  8.442E-01
   1   13    6     8     1    1.9592E+02  9.4834E-01   1.9497E+02  0.000E+00  0.000E+00  0.000E+00  1.02499E+03  3.111E+00  4.511E+01  4.596E-01  6.877E-01
   1   13    5     8     2    1.9497E+02  1.4896E-01   1.9482E+02  0.000E+00  0.000E+00  0.000E+00  1.01873E+03  3.107E+00  4.506E+01  4.592E-01  1.081E-01
   1   13    4     8     3    1.9482E+02 -2.6591E+00   1.9748E+02  0.000E+00  0.000E+00  0.000E+00  1.01249E+03  3.115E+00  4.517E+01  4.603E+00 -1.926E-01
   1   13    3     8     4    1.9748E+02 -3.7664E+00   2.0124E+02  0.000E+00  0.000E+00  0.000E+00  1.00626E+03  3.134E+00  4.544E+01  4.631E+00 -2.711E-01
   1   13    2     8     5    2.0124E+02 -2.7148E+00   2.0396E+02  0.000E+00  0.000E+00  0.000E+00  1.00003E+03  3.153E+00  4.572E+01  4.659E+00 -1.942E-01
   1   13    1     8     6    2.0396E+02 -2.0756E+00   2.0603E+02  0.000E+00  0.000E+00  0.000E+00  9.95042E+02  3.167E+00  4.592E+01  2.808E+00 -2.464E-01
   1    8    6     9     1    0.0000E+00  0.0000E+00   0.0000E+00  0.000E+00  0.000E+00  0.000E+00  1.07875E+03  0.000E+00  4.000E+00  0.000E+00  1.000E+00
   1    8    5     9     2    0.0000E+00  0.0000E+00   0.0000E+00  0.000E+00  0.000E+00  0.000E+00  1.07825E+03  0.000E+00  4.000E+00  0.000E+00  1.000E+00





UNSATURATED ZONE PACKAGE VOLUMETRIC BUDGET FOR  TIME STEP    30 STRESS PERIOD   41
  ------------------------------------------------------------------------------



     CUMULATIVE VOLUMES      L**3       RATES FOR THIS TIME STEP      L**3/T
     ------------------                 ------------------------

           IN:                                      IN:
           ---                                      ---
        INFILTRATION =  4278373646.1114          INFILTRATION =           0.8475

          OUT:                                     OUT:
          ----                                     ----
              UZF ET =  1298972403.3560                UZF ET =           0.8475
        UZF RECHARGE =  2716293710.6995          UZF RECHARGE =       0.0000E+00

            IN - OUT =   263107532.0559              IN - OUT =       0.0000E+00

          STORAGE:                                 STORAGE:
          --------                                 --------
      STORAGE CHANGE =   263100397.8614        STORAGE CHANGE =      -1.7155E-13

 PERCENT DISCREPANCY IS DIFFERENCE BETWEEN IN-OUT MINUS CHANGE IN STORAGE
 DIVIDED BY THE AVERAGE OF IN AND OUT TIMES 100

 PERCENT DISCREPANCY =           0.00     PERCENT DISCREPANCY =           0.00






1
  VOLUMETRIC BUDGET FOR AGRICULTURAL FIELDS AT  END OF TIME STEP   30, STRESS PERIOD  41
  ------------------------------------------------------------------------------

     CUMULATIVE VOLUMES      L**3       RATES FOR THIS TIME STEP      L**3/T
     ------------------                 ------------------------

           IN:                                      IN:
           ---                                      ---
           AG WELLS      =  2651762432.0000             AG WELLS      =           0.0000
      DIVERSION SEGMENTS =  1537368064.0000        DIVERSION SEGMENTS =           0.0000
           GW IRRIGATION =           0.0000             GW IRRIGATION =           0.0000
           SW IRRIGATION =           0.0000             SW IRRIGATION =           0.0000
        SYSTEM LOSSES GW =           0.0000          SYSTEM LOSSES GW =           0.0000
        SYSTEM LOSSES SW =           0.0000          SYSTEM LOSSES SW =           0.0000

                TOTAL IN =  4189130496.0000                  TOTAL IN =           0.0000

          OUT:                                     OUT:
          ----                                     ----
           AG WELLS      =           0.0000             AG WELLS      =           0.0000
      DIVERSION SEGMENTS =           0.0000        DIVERSION SEGMENTS =           0.0000
           GW IRRIGATION =  2651762432.0000             GW IRRIGATION =           0.0000
           SW IRRIGATION =  1537396352.0000             SW IRRIGATION =           0.0000
        SYSTEM LOSSES GW =           0.0000          SYSTEM LOSSES GW =           0.0000
        SYSTEM LOSSES SW =           0.0000          SYSTEM LOSSES SW =           0.0000

               TOTAL OUT =  4189158912.0000                 TOTAL OUT =           0.0000

                IN - OUT =      -28416.0000                  IN - OUT =           0.0000

     PERCENT DISCREPANCY =          -0.00         PERCENT DISCREPANCY =           0.00



1
  VOLUMETRIC BUDGET FOR ENTIRE MODEL AT END OF TIME STEP   30, STRESS PERIOD  41
  ------------------------------------------------------------------------------

     CUMULATIVE VOLUMES      L**3       RATES FOR THIS TIME STEP      L**3/T
     ------------------                 ------------------------

           IN:                                      IN:
           ---                                      ---
             STORAGE     =  2680362240.0000               STORAGE     =           3.0457
       CONSTANT HEAD     =           0.0000         CONSTANT HEAD     =           0.0000
     HEAD DEP BOUNDS     =    30134170.0000       HEAD DEP BOUNDS     =           0.2865
      STREAM LEAKAGE     =  1261812992.0000        STREAM LEAKAGE     =          12.4309
        UZF RECHARGE     =  2716292608.0000          UZF RECHARGE     =           0.0000
               GW ET     =           0.0000                 GW ET     =           0.0000
     SURFACE LEAKAGE     =           0.0000       SURFACE LEAKAGE     =           0.0000
           AG WELLS      =           0.0000             AG WELLS      =           0.0000

                TOTAL IN =  6688602112.0000                  TOTAL IN =          15.7631

          OUT:                                     OUT:
          ----                                     ----
             STORAGE     =  2876121600.0000               STORAGE     =           4.0783
       CONSTANT HEAD     =           0.0000         CONSTANT HEAD     =           0.0000
     HEAD DEP BOUNDS     =    30512656.0000       HEAD DEP BOUNDS     =           0.2957
      STREAM LEAKAGE     =  1129474944.0000        STREAM LEAKAGE     =          11.2159
        UZF RECHARGE     =           0.0000          UZF RECHARGE     =           0.0000
               GW ET     =      769111.4375                 GW ET     =           0.1735
     SURFACE LEAKAGE     =           0.0000       SURFACE LEAKAGE     =           0.0000
           AG WELLS      =  2651762432.0000             AG WELLS      =           0.0000

               TOTAL OUT =  6688641024.0000                 TOTAL OUT =          15.7634

                IN - OUT =      -38912.0000                  IN - OUT =      -2.8896E-04

     PERCENT DISCREPANCY =          -0.00         PERCENT DISCREPANCY =          -0.00






         TIME SUMMARY AT END OF TIME STEP   30 IN STRESS PERIOD   41
                    SECONDS     MINUTES      HOURS       DAYS        YEARS
                    -----------------------------------------------------------
   TIME STEP LENGTH  87667.      1461.1      24.352      1.0147     2.77799E-03
 STRESS PERIOD TIME 2.63000E+06  43833.      730.56      30.440     8.33397E-02
         TOTAL TIME 1.05286E+08 1.75476E+06  29246.      1218.6      3.3363    
1
1
                            STRESS PERIOD NO.   42, LENGTH =   2630000.    
                            -----------------------------------------------

                              NUMBER OF TIME STEPS =    30

                               MULTIPLIER FOR DELT =     1.000

                            INITIAL TIME STEP SIZE =   87666.66    

 REUSING NON-PARAMETER GHB CELLS FROM LAST STRESS PERIOD

      2 GHB CELLS

 REUSING STREAM SEGMENT DATA FROM LAST STRESS PERIOD



            AREAL INFILTRATION RATE
 READING ON UNIT   19 WITH FORMAT: (FREE)              

            1           2           3           4           5           6           7           8           9          10
 ........................................................................................................................
   1   1.0000E-10  2.0000E-10   0.000       0.000       0.000       0.000       0.000       0.000       0.000       0.000    
   2   2.0000E-10  1.0000E-10  2.0000E-10   0.000       0.000      8.0000E-10  8.0000E-10  5.0000E-10   0.000       0.000    
   3    0.000      5.0000E-10  1.0000E-10  1.0000E-10  8.0000E-10  8.0000E-10  5.0000E-10  5.0000E-10   0.000       0.000    
   4   8.0000E-10  5.0000E-10  1.0000E-10  1.0000E-10  1.0000E-10  1.0000E-10  1.0000E-10  1.0000E-10  2.0000E-10   0.000    
   5   8.0000E-10  5.0000E-10  1.0000E-10  1.0000E-10  1.0000E-10  1.0000E-10  1.0000E-10  1.0000E-10  1.0000E-10  1.0000E-10
   6   8.0000E-10  5.0000E-10  5.0000E-10  2.0000E-10  2.0000E-10  1.0000E-10  1.0000E-10  1.0000E-10  1.0000E-10  5.0000E-10
   7   8.0000E-10  5.0000E-10  5.0000E-10  2.0000E-10  2.0000E-10  1.0000E-10  1.0000E-10  2.0000E-10  2.0000E-10   0.000    
   8    0.000      5.0000E-10  5.0000E-10  2.0000E-10  2.0000E-10  1.0000E-10  1.0000E-10  2.0000E-10  5.0000E-10   0.000    
   9    0.000      5.0000E-10  5.0000E-10  2.0000E-10  2.0000E-10  1.0000E-10  1.0000E-10  2.0000E-10  5.0000E-10   0.000    
  10    0.000      5.0000E-10  5.0000E-10  2.0000E-10  2.0000E-10  1.0000E-10  1.0000E-10  2.0000E-10  5.0000E-10  8.0000E-10
  11    0.000      1.0000E-10  1.0000E-10  1.0000E-10  1.0000E-10  1.0000E-10  1.0000E-10  2.0000E-10  5.0000E-10   0.000    
  12   1.0000E-10  1.0000E-10  1.0000E-10  1.0000E-10  1.0000E-10  1.0000E-10  1.0000E-10  1.0000E-10  2.0000E-10   0.000    
  13   1.0000E-10  1.0000E-10  2.0000E-10  2.0000E-10  2.0000E-10  2.0000E-10  2.0000E-10  1.0000E-10  1.0000E-10   0.000    
  14    0.000      2.0000E-10  5.0000E-10  5.0000E-10  5.0000E-10  5.0000E-10  5.0000E-10  2.0000E-10  1.0000E-10   0.000    
  15    0.000       0.000      8.0000E-10  8.0000E-10  8.0000E-10  8.0000E-10   0.000       0.000       0.000       0.000    

                  ET RATE =  5.000000E-08

 USING ET EXTINCTION DEPTH FROM PREVIOUS STRESS PERIOD. CURRENT PERIOD IS:      42

 USING EXTINCTION WATER CONTENT FROM PREVIOUS STRESS PERIOD. CURRENT PERIOD IS:      42

 USING AIR ENTRY PRESSURE FROM PREVIOUS STRESS PERIOD. CURRENT PERIOD IS:      42

 USING ROOT PRESSURE HEAD FROM PREVIOUS STRESS PERIOD. CURRENT PERIOD IS:      42

 USING ROOT ACTIVITY FROM PREVIOUS STRESS PERIOD. CURRENT PERIOD IS:      42

 PROCESSING AG STRESS PERIOD DATA

 READING AG STRESS PERIOD DATA

 READING IRRIGATION SEGMENT

 READING IRRIGATION WELL

 READING SUPPLEMENTAL WELL

 END PROCESSING AG STRESS PERIOD DATA OPTIONS
 
 SOLVING FOR HEAD 
                                                   Max.-Head-Change                         Max.-Flux-Residual
  Residual-Control   Outer-Iter.   Inner-Iter.     Column Row Layer    Maximum-Head-Change  Column Row Layer    Maximum-Flux-Residual          L2-NORM 
          0                 1           2             4   13     1      -0.6373053247E-02       4   13    1        -0.3816920649E+00      0.1073433387E+01
          0                 2           2             4    7     1      -0.1913497382E+01       5    6    1        -0.9998149990E+02      0.2448960345E+03
          0                 3           2             4    7     1       0.1851733389E+00       5    8    1         0.1000735200E+02      0.2442076684E+02
          0                 4           2             4    7     1      -0.1260981175E-01       5    8    1        -0.7005247976E+00      0.1709483826E+01
          0                 5           2             4    7     1       0.5017552170E-03       5    8    1         0.2865145844E-01      0.6991766916E-01
          0                 6           1             4    7     1      -0.6186860765E-05       5    8    1        -0.3631023544E-03      0.8860725117E-03

    ------------------------------------------------
       NWT REQUIRED            6 OUTER ITERATIONS 
       AND A TOTAL OF         11 INNER ITERATIONS.
    ------------------------------------------------

 NO OUTPUT CONTROL FOR STRESS PERIOD   42   TIME STEP    1
 
 SOLVING FOR HEAD 
                                                   Max.-Head-Change                         Max.-Flux-Residual
  Residual-Control   Outer-Iter.   Inner-Iter.     Column Row Layer    Maximum-Head-Change  Column Row Layer    Maximum-Flux-Residual          L2-NORM 
          0                 1           2             5    8     1       0.4921217887E-01       5    8    1         0.2725374294E+01      0.6144421791E+01
          0                 2           2             4    7     1      -0.2168877837E+00       5    8    1        -0.1188892335E+02      0.2890381394E+02
          0                 3           2             4    7     1       0.1419201033E+00       5    8    1         0.7848318850E+01      0.1920696928E+02
          0                 4           2             4    7     1      -0.2104579865E+00       5    8    1        -0.1193729236E+02      0.2923963791E+02
          0                 5           2             4    7     1       0.2594766352E-02       4    7    1         0.1512453511E+00      0.3705398171E+00
          0                 6           1             4    7     1       0.3816178999E-04       5    8    1         0.2228792912E-02      0.5465038537E-02

    ------------------------------------------------
       NWT REQUIRED            6 OUTER ITERATIONS 
       AND A TOTAL OF         11 INNER ITERATIONS.
    ------------------------------------------------

 NO OUTPUT CONTROL FOR STRESS PERIOD   42   TIME STEP    2
 
 SOLVING FOR HEAD 
                                                   Max.-Head-Change                         Max.-Flux-Residual
  Residual-Control   Outer-Iter.   Inner-Iter.     Column Row Layer    Maximum-Head-Change  Column Row Layer    Maximum-Flux-Residual          L2-NORM 
          0                 1           2             5    8     1       0.5501359326E-01       5    8    1         0.3043166818E+01      0.6846839542E+01
          0                 2           2             4    7     1      -0.2171315185E+00       5    8    1        -0.1192070177E+02      0.2896467573E+02
          0                 3           2             4    7     1       0.1419372905E+00       5    8    1         0.7850555546E+01      0.1921105762E+02
          0                 4           2             4    7     1      -0.2104595950E+00       5    8    1        -0.1193738500E+02      0.2923980890E+02
          0                 5           2             4    7     1       0.2594791756E-02       4    7    1         0.1512458113E+00      0.3705511730E+00
          0                 6           1             4    7     1       0.3816216323E-04       5    8    1         0.2228809180E-02      0.5465197124E-02

    ------------------------------------------------
       NWT REQUIRED            6 OUTER ITERATIONS 
       AND A TOTAL OF         11 INNER ITERATIONS.
    ------------------------------------------------

 NO OUTPUT CONTROL FOR STRESS PERIOD   42   TIME STEP    3
 
 SOLVING FOR HEAD 
                                                   Max.-Head-Change                         Max.-Flux-Residual
  Residual-Control   Outer-Iter.   Inner-Iter.     Column Row Layer    Maximum-Head-Change  Column Row Layer    Maximum-Flux-Residual          L2-NORM 
          0                 1           2             5    8     1       0.6052192411E-01       5    8    1         0.3344641032E+01      0.7525960086E+01
          0                 2           2             4    7     1      -0.2173805866E+00       5    8    1        -0.1195084835E+02      0.2902355138E+02
          0                 3           2             4    7     1       0.1419548450E+00       5    8    1         0.7852676261E+01      0.1921489870E+02
          0                 4           2             4    7     1      -0.2104612450E+00       5    8    1        -0.1193747277E+02      0.2923997322E+02
          0                 5           2             4    7     1       0.2594812100E-02       4    7    1         0.1512462831E+00      0.3705528605E+00
          0                 6           1             4    7     1       0.3816246299E-04       5    8    1         0.2228826072E-02      0.5465228925E-02

    ------------------------------------------------
       NWT REQUIRED            6 OUTER ITERATIONS 
       AND A TOTAL OF         11 INNER ITERATIONS.
    ------------------------------------------------

 NO OUTPUT CONTROL FOR STRESS PERIOD   42   TIME STEP    4
 
 SOLVING FOR HEAD 
                                                   Max.-Head-Change                         Max.-Flux-Residual
  Residual-Control   Outer-Iter.   Inner-Iter.     Column Row Layer    Maximum-Head-Change  Column Row Layer    Maximum-Flux-Residual          L2-NORM 
          0                 1           2             5    8     1       0.6575670450E-01       5    8    1         0.3630894234E+01      0.8180850651E+01
          0                 2           2             5    7     1      -0.2177322700E+00       5    8    1        -0.1197947280E+02      0.2908051281E+02
          0                 3           2             4    7     1       0.1419727317E+00       5    8    1         0.7854685635E+01      0.1921878115E+02
          0                 4           2             4    7     1      -0.2104629378E+00       5    8    1        -0.1193755581E+02      0.2924013270E+02
          0                 5           2             4    7     1       0.2594832970E-02       4    7    1         0.1512467652E+00      0.3705546082E+00
          0                 6           1             4    7     1       0.3816276969E-04       5    8    1         0.2228841016E-02      0.5465253345E-02

    ------------------------------------------------
       NWT REQUIRED            6 OUTER ITERATIONS 
       AND A TOTAL OF         11 INNER ITERATIONS.
    ------------------------------------------------

 NO OUTPUT CONTROL FOR STRESS PERIOD   42   TIME STEP    5
 
 SOLVING FOR HEAD 
                                                   Max.-Head-Change                         Max.-Flux-Residual
  Residual-Control   Outer-Iter.   Inner-Iter.     Column Row Layer    Maximum-Head-Change  Column Row Layer    Maximum-Flux-Residual          L2-NORM 
          0                 1           2             5    8     1       0.7073566043E-01       5    8    1         0.3902923163E+01      0.8811009396E+01
          0                 2           2             5    7     1      -0.2181205363E+00       5    8    1        -0.1200667482E+02      0.2913564349E+02
          0                 3           2             4    7     1       0.1419909005E+00       5    8    1         0.7856590297E+01      0.1922248409E+02
          0                 4           2             4    7     1      -0.2104646685E+00       5    8    1        -0.1193763436E+02      0.2924028695E+02
          0                 5           2             4    7     1       0.2594854307E-02       4    7    1         0.1512472561E+00      0.3705563013E+00
          0                 6           1             4    7     1       0.3816308333E-04       5    8    1         0.2228857022E-02      0.5465278764E-02

    ------------------------------------------------
       NWT REQUIRED            6 OUTER ITERATIONS 
       AND A TOTAL OF         11 INNER ITERATIONS.
    ------------------------------------------------

 NO OUTPUT CONTROL FOR STRESS PERIOD   42   TIME STEP    6
 
 SOLVING FOR HEAD 
                                                   Max.-Head-Change                         Max.-Flux-Residual
  Residual-Control   Outer-Iter.   Inner-Iter.     Column Row Layer    Maximum-Head-Change  Column Row Layer    Maximum-Flux-Residual          L2-NORM 
          0                 1           2             5    8     1       0.7547531463E-01       5    8    1         0.4161654851E+01      0.9416494595E+01
          0                 2           2             5    7     1      -0.2185000459E+00       5    8    1        -0.1203254710E+02      0.2918901594E+02
          0                 3           2             4    7     1       0.1420093110E+00       5    8    1         0.7858401384E+01      0.1922601331E+02
          0                 4           2             4    7     1      -0.2104664326E+00       5    8    1        -0.1193770904E+02      0.2924043628E+02
          0                 5           2             4    7     1       0.2594876053E-02       4    7    1         0.1512477546E+00      0.3705579237E+00
          0                 6           1             4    7     1       0.3816340325E-04       5    8    1         0.2228870678E-02      0.5465299383E-02

    ------------------------------------------------
       NWT REQUIRED            6 OUTER ITERATIONS 
       AND A TOTAL OF         11 INNER ITERATIONS.
    ------------------------------------------------

 NO OUTPUT CONTROL FOR STRESS PERIOD   42   TIME STEP    7
 
 SOLVING FOR HEAD 
                                                   Max.-Head-Change                         Max.-Flux-Residual
  Residual-Control   Outer-Iter.   Inner-Iter.     Column Row Layer    Maximum-Head-Change  Column Row Layer    Maximum-Flux-Residual          L2-NORM 
          0                 1           2             5    8     1       0.7999092272E-01       5    8    1         0.4407946031E+01      0.9998129618E+01
          0                 2           2             5    7     1      -0.2188708644E+00       5    8    1        -0.1205717534E+02      0.2924064379E+02
          0                 3           2             4    7     1       0.1420279190E+00       5    8    1         0.7860125390E+01      0.1922960885E+02
          0                 4           2             4    7     1      -0.2104682257E+00       5    8    1        -0.1193778012E+02      0.2924058131E+02
          0                 5           2             4    7     1       0.2594898157E-02       4    7    1         0.1512482595E+00      0.3705595225E+00
          0                 6           1             4    7     1       0.3816372843E-04       5    8    1         0.2228883664E-02      0.5465319708E-02

    ------------------------------------------------
       NWT REQUIRED            6 OUTER ITERATIONS 
       AND A TOTAL OF         11 INNER ITERATIONS.
    ------------------------------------------------

 NO OUTPUT CONTROL FOR STRESS PERIOD   42   TIME STEP    8
 
 SOLVING FOR HEAD 
                                                   Max.-Head-Change                         Max.-Flux-Residual
  Residual-Control   Outer-Iter.   Inner-Iter.     Column Row Layer    Maximum-Head-Change  Column Row Layer    Maximum-Flux-Residual          L2-NORM 
          0                 1           2             5    8     1       0.8429688619E-01       5    8    1         0.4642603513E+01      0.1055742931E+02
          0                 2           2             5    6     1      -0.2192688120E+00       5    8    1        -0.1208064020E+02      0.2929069146E+02
          0                 3           2             4    7     1       0.1420466865E+00       5    8    1         0.7861767965E+01      0.1923310612E+02
          0                 4           2             4    7     1      -0.2104700439E+00       5    8    1        -0.1193784783E+02      0.2924072197E+02
          0                 5           2             4    7     1       0.2594920570E-02       4    7    1         0.1512487695E+00      0.3705610771E+00
          0                 6           1             4    7     1       0.3816405832E-04       5    8    1         0.2228896009E-02      0.5465339298E-02

    ------------------------------------------------
       NWT REQUIRED            6 OUTER ITERATIONS 
       AND A TOTAL OF         11 INNER ITERATIONS.
    ------------------------------------------------

 NO OUTPUT CONTROL FOR STRESS PERIOD   42   TIME STEP    9
 
 SOLVING FOR HEAD 
                                                   Max.-Head-Change                         Max.-Flux-Residual
  Residual-Control   Outer-Iter.   Inner-Iter.     Column Row Layer    Maximum-Head-Change  Column Row Layer    Maximum-Flux-Residual          L2-NORM 
          0                 1           2             5    8     1       0.8840623093E-01       5    8    1         0.4866358253E+01      0.1109561359E+02
          0                 2           2             5    6     1      -0.2196655168E+00       5    8    1        -0.1210301480E+02      0.2933924077E+02
          0                 3           2             4    7     1       0.1420655788E+00       5    8    1         0.7863334223E+01      0.1923642840E+02
          0                 4           2             4    7     1      -0.2104718838E+00       5    8    1        -0.1193791239E+02      0.2924085837E+02
          0                 5           2             4    7     1       0.2594943248E-02       4    7    1         0.1512492838E+00      0.3705625881E+00
          0                 6           1             4    7     1       0.3816439145E-04       5    8    1         0.2228907756E-02      0.5465358489E-02

    ------------------------------------------------
       NWT REQUIRED            6 OUTER ITERATIONS 
       AND A TOTAL OF         11 INNER ITERATIONS.
    ------------------------------------------------

 NO OUTPUT CONTROL FOR STRESS PERIOD   42   TIME STEP   10
 
 SOLVING FOR HEAD 
                                                   Max.-Head-Change                         Max.-Flux-Residual
  Residual-Control   Outer-Iter.   Inner-Iter.     Column Row Layer    Maximum-Head-Change  Column Row Layer    Maximum-Flux-Residual          L2-NORM 
          0                 1           2             5    8     1       0.9233116116E-01       5    8    1         0.5079893564E+01      0.1161373317E+02
          0                 2           2             5    6     1      -0.2200454346E+00       5    8    1        -0.1212436746E+02      0.2938634266E+02
          0                 3           2             4    7     1       0.1420845615E+00       5    8    1         0.7864828947E+01      0.1923965323E+02
          0                 4           2             4    7     1      -0.2104737418E+00       5    8    1        -0.1193797399E+02      0.2924099075E+02
          0                 5           2             4    7     1       0.2594966149E-02       4    7    1         0.1512498013E+00      0.3705640580E+00
          0                 6           1             4    7     1       0.3816472840E-04       5    8    1         0.2228918940E-02      0.5465376803E-02

    ------------------------------------------------
       NWT REQUIRED            6 OUTER ITERATIONS 
       AND A TOTAL OF         11 INNER ITERATIONS.
    ------------------------------------------------

 NO OUTPUT CONTROL FOR STRESS PERIOD   42   TIME STEP   11
 
 SOLVING FOR HEAD 
                                                   Max.-Head-Change                         Max.-Flux-Residual
  Residual-Control   Outer-Iter.   Inner-Iter.     Column Row Layer    Maximum-Head-Change  Column Row Layer    Maximum-Flux-Residual          L2-NORM 
          0                 1           2             5    8     1       0.9608297240E-01       5    8    1         0.5283842263E+01      0.1211281662E+02
          0                 2           2             5    6     1      -0.2204095609E+00       5    8    1        -0.1214476147E+02      0.2943205768E+02
          0                 3           2             4    7     1       0.1421036053E+00       5    8    1         0.7866256569E+01      0.1924278474E+02
          0                 4           2             4    7     1      -0.2104756148E+00       5    8    1        -0.1193803282E+02      0.2924111929E+02
          0                 5           2             4    7     1       0.2594989235E-02       4    7    1         0.1512503211E+00      0.3705654886E+00
          0                 6           1             4    7     1       0.3816506803E-04       5    8    1         0.2228929596E-02      0.5465394590E-02

    ------------------------------------------------
       NWT REQUIRED            6 OUTER ITERATIONS 
       AND A TOTAL OF         11 INNER ITERATIONS.
    ------------------------------------------------

 NO OUTPUT CONTROL FOR STRESS PERIOD   42   TIME STEP   12
 
 SOLVING FOR HEAD 
                                                   Max.-Head-Change                         Max.-Flux-Residual
  Residual-Control   Outer-Iter.   Inner-Iter.     Column Row Layer    Maximum-Head-Change  Column Row Layer    Maximum-Flux-Residual          L2-NORM 
          0                 1           2             5    8     1       0.9967242568E-01       5    8    1         0.5478805797E+01      0.1259382333E+02
          0                 2           2             5    6     1      -0.2207587356E+00       5    8    1        -0.1216425697E+02      0.2947644243E+02
          0                 3           2             4    7     1       0.1421226829E+00       5    8    1         0.7867621296E+01      0.1924582675E+02
          0                 4           2             4    7     1      -0.2104774999E+00       5    8    1        -0.1193808904E+02      0.2924124414E+02
          0                 5           2             4    7     1       0.2595012470E-02       4    7    1         0.1512508425E+00      0.3705668810E+00
          0                 6           1             4    7     1       0.3816540957E-04       5    8    1         0.2228939762E-02      0.5465411882E-02

    ------------------------------------------------
       NWT REQUIRED            6 OUTER ITERATIONS 
       AND A TOTAL OF         11 INNER ITERATIONS.
    ------------------------------------------------

 NO OUTPUT CONTROL FOR STRESS PERIOD   42   TIME STEP   13
 
 SOLVING FOR HEAD 
                                                   Max.-Head-Change                         Max.-Flux-Residual
  Residual-Control   Outer-Iter.   Inner-Iter.     Column Row Layer    Maximum-Head-Change  Column Row Layer    Maximum-Flux-Residual          L2-NORM 
          0                 1           2             5    8     1       0.1031089292E+00       5    8    1         0.5665310651E+01      0.1305767338E+02
          0                 2           2             5    6     1      -0.2210938299E+00       5    8    1        -0.1218290661E+02      0.2951955025E+02
          0                 3           2             4    7     1       0.1421417666E+00       5    8    1         0.7868926815E+01      0.1924878287E+02
          0                 4           2             4    7     1      -0.2104793944E+00       5    8    1        -0.1193814282E+02      0.2924136546E+02
          0                 5           2             4    7     1       0.2595035818E-02       4    7    1         0.1512513645E+00      0.3705682373E+00
          0                 6           1             4    7     1       0.3816575312E-04       5    8    1         0.2228949480E-02      0.5465428536E-02

    ------------------------------------------------
       NWT REQUIRED            6 OUTER ITERATIONS 
       AND A TOTAL OF         11 INNER ITERATIONS.
    ------------------------------------------------

 NO OUTPUT CONTROL FOR STRESS PERIOD   42   TIME STEP   14
 
 SOLVING FOR HEAD 
                                                   Max.-Head-Change                         Max.-Flux-Residual
  Residual-Control   Outer-Iter.   Inner-Iter.     Column Row Layer    Maximum-Head-Change  Column Row Layer    Maximum-Flux-Residual          L2-NORM 
          0                 1           2             5    8     1       0.1064019279E+00       5    8    1         0.5843884036E+01      0.1350524722E+02
          0                 2           2             5    6     1      -0.2214156120E+00       5    8    1        -0.1220076313E+02      0.2956143355E+02
          0                 3           2             4    7     1       0.1421608348E+00       5    8    1         0.7870176815E+01      0.1925165661E+02
          0                 4           2             4    7     1      -0.2104812957E+00       5    8    1        -0.1193819430E+02      0.2924148339E+02
          0                 5           2             4    7     1       0.2595059251E-02       4    7    1         0.1512518867E+00      0.3705695583E+00
          0                 6           1             4    7     1       0.3816609768E-04       5    8    1         0.2228958739E-02      0.5465444860E-02

    ------------------------------------------------
       NWT REQUIRED            6 OUTER ITERATIONS 
       AND A TOTAL OF         11 INNER ITERATIONS.
    ------------------------------------------------

 NO OUTPUT CONTROL FOR STRESS PERIOD   42   TIME STEP   15
 
 SOLVING FOR HEAD 
                                                   Max.-Head-Change                         Max.-Flux-Residual
  Residual-Control   Outer-Iter.   Inner-Iter.     Column Row Layer    Maximum-Head-Change  Column Row Layer    Maximum-Flux-Residual          L2-NORM 
          0                 1           2             5    8     1       0.1095597513E+00       5    8    1         0.6014992072E+01      0.1393736034E+02
          0                 2           2             5    6     1      -0.2217248138E+00       5    8    1        -0.1221787311E+02      0.2960214078E+02
          0                 3           2             4    7     1       0.1421798638E+00       5    8    1         0.7871374560E+01      0.1925445124E+02
          0                 4           2             4    7     1      -0.2104832016E+00       5    8    1        -0.1193824363E+02      0.2924159805E+02
          0                 5           2             4    7     1       0.2595082740E-02       4    7    1         0.1512524082E+00      0.3705708459E+00
          0                 6           1             4    7     1       0.3816644336E-04       5    8    1         0.2228967589E-02      0.5465460564E-02

    ------------------------------------------------
       NWT REQUIRED            6 OUTER ITERATIONS 
       AND A TOTAL OF         11 INNER ITERATIONS.
    ------------------------------------------------

 NO OUTPUT CONTROL FOR STRESS PERIOD   42   TIME STEP   16
 
 SOLVING FOR HEAD 
                                                   Max.-Head-Change                         Max.-Flux-Residual
  Residual-Control   Outer-Iter.   Inner-Iter.     Column Row Layer    Maximum-Head-Change  Column Row Layer    Maximum-Flux-Residual          L2-NORM 
          0                 1           2             5    8     1       0.1125902899E+00       5    8    1         0.6179074553E+01      0.1435479143E+02
          0                 2           2             5    6     1      -0.2220221338E+00       5    8    1        -0.1223428056E+02      0.2964171884E+02
          0                 3           2             4    7     1       0.1421988358E+00       5    8    1         0.7872523128E+01      0.1925716988E+02
          0                 4           2             4    7     1      -0.2104851099E+00       5    8    1        -0.1193829092E+02      0.2924170960E+02
          0                 5           2             4    7     1       0.2595106258E-02       4    7    1         0.1512529285E+00      0.3705721006E+00
          0                 6           1             4    7     1       0.3816678915E-04       5    8    1         0.2228976061E-02      0.5465475712E-02

    ------------------------------------------------
       NWT REQUIRED            6 OUTER ITERATIONS 
       AND A TOTAL OF         11 INNER ITERATIONS.
    ------------------------------------------------

 NO OUTPUT CONTROL FOR STRESS PERIOD   42   TIME STEP   17
 
 SOLVING FOR HEAD 
                                                   Max.-Head-Change                         Max.-Flux-Residual
  Residual-Control   Outer-Iter.   Inner-Iter.     Column Row Layer    Maximum-Head-Change  Column Row Layer    Maximum-Flux-Residual          L2-NORM 
          0                 1           2             5    8     1       0.1155010100E+00       5    8    1         0.6336548475E+01      0.1475826956E+02
          0                 2           2             5    6     1      -0.2223081804E+00       5    8    1        -0.1225002717E+02      0.2968020536E+02
          0                 3           2             4    7     1       0.1422177543E+00       5    8    1         0.7873625437E+01      0.1925981542E+02
          0                 4           2             4    7     1      -0.2104870349E+00       5    8    1        -0.1193833630E+02      0.2924181811E+02
          0                 5           2             4    7     1       0.2595129973E-02       4    7    1         0.1512534179E+00      0.3705733133E+00
          0                 6           1             4    7     1       0.3816713764E-04       5    8    1         0.2228984178E-02      0.5465490732E-02

    ------------------------------------------------
       NWT REQUIRED            6 OUTER ITERATIONS 
       AND A TOTAL OF         11 INNER ITERATIONS.
    ------------------------------------------------

 NO OUTPUT CONTROL FOR STRESS PERIOD   42   TIME STEP   18
 
 SOLVING FOR HEAD 
                                                   Max.-Head-Change                         Max.-Flux-Residual
  Residual-Control   Outer-Iter.   Inner-Iter.     Column Row Layer    Maximum-Head-Change  Column Row Layer    Maximum-Flux-Residual          L2-NORM 
          0                 1           2             5    8     1       0.1182984380E+00       5    8    1         0.6487777410E+01      0.1514859976E+02
          0                 2           2             5    6     1      -0.2225835953E+00       5    8    1        -0.1226514929E+02      0.2971766088E+02
          0                 3           2             4    7     1       0.1422365393E+00       5    8    1         0.7874684032E+01      0.1926239085E+02
          0                 4           2             4    7     1      -0.2104889422E+00       5    8    1        -0.1193837987E+02      0.2924192376E+02
          0                 5           2             4    7     1       0.2595153479E-02       4    7    1         0.1512539366E+00      0.3705744935E+00
          0                 6           1             4    7     1       0.3816748354E-04       5    8    1         0.2228991950E-02      0.5465505274E-02

    ------------------------------------------------
       NWT REQUIRED            6 OUTER ITERATIONS 
       AND A TOTAL OF         11 INNER ITERATIONS.
    ------------------------------------------------

 NO OUTPUT CONTROL FOR STRESS PERIOD   42   TIME STEP   19
 
 SOLVING FOR HEAD 
                                                   Max.-Head-Change                         Max.-Flux-Residual
  Residual-Control   Outer-Iter.   Inner-Iter.     Column Row Layer    Maximum-Head-Change  Column Row Layer    Maximum-Flux-Residual          L2-NORM 
          0                 1           2             5    8     1       0.1209891903E+00       5    8    1         0.6633131165E+01      0.1552645644E+02
          0                 2           2             5    6     1      -0.2228489263E+00       5    8    1        -0.1227968391E+02      0.2975410222E+02
          0                 3           2             4    7     1       0.1422552290E+00       5    8    1         0.7875701502E+01      0.1926489860E+02
          0                 4           2             4    7     1      -0.2104908472E+00       5    8    1        -0.1193842174E+02      0.2924202661E+02
          0                 5           2             4    7     1       0.2595176956E-02       4    7    1         0.1512544506E+00      0.3705756470E+00
          0                 6           1             4    7     1       0.3816782889E-04       5    8    1         0.2228999391E-02      0.5465519708E-02

    ------------------------------------------------
       NWT REQUIRED            6 OUTER ITERATIONS 
       AND A TOTAL OF         11 INNER ITERATIONS.
    ------------------------------------------------

 NO OUTPUT CONTROL FOR STRESS PERIOD   42   TIME STEP   20
 
 SOLVING FOR HEAD 
                                                   Max.-Head-Change                         Max.-Flux-Residual
  Residual-Control   Outer-Iter.   Inner-Iter.     Column Row Layer    Maximum-Head-Change  Column Row Layer    Maximum-Flux-Residual          L2-NORM 
          0                 1           2             5    8     1       0.1235793061E+00       5    8    1         0.6772945093E+01      0.1589271019E+02
          0                 2           2             5    6     1      -0.2231046781E+00       5    8    1        -0.1229366456E+02      0.2978959605E+02
          0                 3           2             4    7     1       0.1422737936E+00       5    8    1         0.7876680195E+01      0.1926734140E+02
          0                 4           2             4    7     1      -0.2104927475E+00       5    8    1        -0.1193846202E+02      0.2924212682E+02
          0                 5           2             4    7     1       0.2595200374E-02       4    7    1         0.1512549616E+00      0.3705767824E+00
          0                 6           1             4    7     1       0.3816817334E-04       5    8    1         0.2229006499E-02      0.5465533049E-02

    ------------------------------------------------
       NWT REQUIRED            6 OUTER ITERATIONS 
       AND A TOTAL OF         11 INNER ITERATIONS.
    ------------------------------------------------

 NO OUTPUT CONTROL FOR STRESS PERIOD   42   TIME STEP   21
 
 SOLVING FOR HEAD 
                                                   Max.-Head-Change                         Max.-Flux-Residual
  Residual-Control   Outer-Iter.   Inner-Iter.     Column Row Layer    Maximum-Head-Change  Column Row Layer    Maximum-Flux-Residual          L2-NORM 
          0                 1           2             5    8     1       0.1260739710E+00       5    8    1         0.6907508700E+01      0.1624750440E+02
          0                 2           2             5    6     1      -0.2233513803E+00       5    8    1        -0.1230712019E+02      0.2982415032E+02
          0                 3           2             4    7     1       0.1422922220E+00       5    8    1         0.7877622136E+01      0.1926972137E+02
          0                 4           2             4    7     1      -0.2104946422E+00       5    8    1        -0.1193850077E+02      0.2924222442E+02
          0                 5           2             4    7     1       0.2595223723E-02       4    7    1         0.1512554689E+00      0.3705778830E+00
          0                 6           1             4    7     1       0.3816851667E-04       5    8    1         0.2229013331E-02      0.5465546299E-02

    ------------------------------------------------
       NWT REQUIRED            6 OUTER ITERATIONS 
       AND A TOTAL OF         11 INNER ITERATIONS.
    ------------------------------------------------

 NO OUTPUT CONTROL FOR STRESS PERIOD   42   TIME STEP   22
 
 SOLVING FOR HEAD 
                                                   Max.-Head-Change                         Max.-Flux-Residual
  Residual-Control   Outer-Iter.   Inner-Iter.     Column Row Layer    Maximum-Head-Change  Column Row Layer    Maximum-Flux-Residual          L2-NORM 
          0                 1           2             5    8     1       0.1284787226E+00       5    8    1         0.7037130126E+01      0.1659145954E+02
          0                 2           2             5    6     1      -0.2235894710E+00       5    8    1        -0.1232008163E+02      0.2985781337E+02
          0                 3           2             4    7     1       0.1423105043E+00       5    8    1         0.7878529483E+01      0.1927204099E+02
          0                 4           2             4    7     1      -0.2104965297E+00       5    8    1        -0.1193853809E+02      0.2924231955E+02
          0                 5           2             4    7     1       0.2595246984E-02       4    7    1         0.1512559725E+00      0.3705789648E+00
          0                 6           1             4    7     1       0.3816885876E-04       5    8    1         0.2229019907E-02      0.5465558720E-02

    ------------------------------------------------
       NWT REQUIRED            6 OUTER ITERATIONS 
       AND A TOTAL OF         11 INNER ITERATIONS.
    ------------------------------------------------

 NO OUTPUT CONTROL FOR STRESS PERIOD   42   TIME STEP   23
 
 SOLVING FOR HEAD 
                                                   Max.-Head-Change                         Max.-Flux-Residual
  Residual-Control   Outer-Iter.   Inner-Iter.     Column Row Layer    Maximum-Head-Change  Column Row Layer    Maximum-Flux-Residual          L2-NORM 
          0                 1           2             5    8     1       0.1307983090E+00       5    8    1         0.7162073044E+01      0.1692512319E+02
          0                 2           2             5    6     1      -0.2238193898E+00       5    8    1        -0.1233257522E+02      0.2989061289E+02
          0                 3           2             4    7     1       0.1423286284E+00       5    8    1         0.7879404081E+01      0.1927430234E+02
          0                 4           2             4    7     1      -0.2104984088E+00       5    8    1        -0.1193857407E+02      0.2924241228E+02
          0                 5           2             4    7     1       0.2595270142E-02       4    7    1         0.1512564721E+00      0.3705800224E+00
          0                 6           1             4    7     1       0.3816919918E-04       5    8    1         0.2229026184E-02      0.5465571154E-02

    ------------------------------------------------
       NWT REQUIRED            6 OUTER ITERATIONS 
       AND A TOTAL OF         11 INNER ITERATIONS.
    ------------------------------------------------

 NO OUTPUT CONTROL FOR STRESS PERIOD   42   TIME STEP   24
 
 SOLVING FOR HEAD 
                                                   Max.-Head-Change                         Max.-Flux-Residual
  Residual-Control   Outer-Iter.   Inner-Iter.     Column Row Layer    Maximum-Head-Change  Column Row Layer    Maximum-Flux-Residual          L2-NORM 
          0                 1           2             5    8     1       0.1330371604E+00       5    8    1         0.7282583612E+01      0.1724883933E+02
          0                 2           2             5    6     1      -0.2240415656E+00       5    8    1        -0.1234462560E+02      0.2992258301E+02
          0                 3           2             4    7     1       0.1423465868E+00       5    8    1         0.7880247654E+01      0.1927650764E+02
          0                 4           2             4    7     1      -0.2105002787E+00       5    8    1        -0.1193860876E+02      0.2924250271E+02
          0                 5           2             4    7     1       0.2595293185E-02       4    7    1         0.1512569672E+00      0.3705810550E+00
          0                 6           1             4    7     1       0.3816953825E-04       5    8    1         0.2229032246E-02      0.5465582913E-02

    ------------------------------------------------
       NWT REQUIRED            6 OUTER ITERATIONS 
       AND A TOTAL OF         11 INNER ITERATIONS.
    ------------------------------------------------

 NO OUTPUT CONTROL FOR STRESS PERIOD   42   TIME STEP   25
 
 SOLVING FOR HEAD 
                                                   Max.-Head-Change                         Max.-Flux-Residual
  Residual-Control   Outer-Iter.   Inner-Iter.     Column Row Layer    Maximum-Head-Change  Column Row Layer    Maximum-Flux-Residual          L2-NORM 
          0                 1           2             5    8     1       0.1351996982E+00       5    8    1         0.7398907246E+01      0.1756304430E+02
          0                 2           2             5    6     1      -0.2242563567E+00       5    8    1        -0.1235625730E+02      0.2995375344E+02
          0                 3           2             4    7     1       0.1423643728E+00       5    8    1         0.7881061918E+01      0.1927865884E+02
          0                 4           2             4    7     1      -0.2105021386E+00       5    8    1        -0.1193864224E+02      0.2924259091E+02
          0                 5           2             4    7     1       0.2595316104E-02       4    7    1         0.1512574577E+00      0.3705820639E+00
          0                 6           1             4    7     1       0.3816987553E-04       5    8    1         0.2229038082E-02      0.5465595052E-02

    ------------------------------------------------
       NWT REQUIRED            6 OUTER ITERATIONS 
       AND A TOTAL OF         11 INNER ITERATIONS.
    ------------------------------------------------

 NO OUTPUT CONTROL FOR STRESS PERIOD   42   TIME STEP   26
 
 SOLVING FOR HEAD 
                                                   Max.-Head-Change                         Max.-Flux-Residual
  Residual-Control   Outer-Iter.   Inner-Iter.     Column Row Layer    Maximum-Head-Change  Column Row Layer    Maximum-Flux-Residual          L2-NORM 
          0                 1           2             5    8     1       0.1372897652E+00       5    8    1         0.7511257549E+01      0.1786815766E+02
          0                 2           2             5    7     1      -0.2244823562E+00       5    8    1        -0.1236749168E+02      0.2998415201E+02
          0                 3           2             4    7     1       0.1423819770E+00       5    8    1         0.7881848370E+01      0.1928075782E+02
          0                 4           2             4    7     1      -0.2105039872E+00       5    8    1        -0.1193867457E+02      0.2924267696E+02
          0                 5           2             4    7     1       0.2595338885E-02       4    7    1         0.1512579434E+00      0.3705830498E+00
          0                 6           1             4    7     1       0.3817021046E-04       5    8    1         0.2229043665E-02      0.5465606000E-02

    ------------------------------------------------
       NWT REQUIRED            6 OUTER ITERATIONS 
       AND A TOTAL OF         11 INNER ITERATIONS.
    ------------------------------------------------

 NO OUTPUT CONTROL FOR STRESS PERIOD   42   TIME STEP   27
 
 SOLVING FOR HEAD 
                                                   Max.-Head-Change                         Max.-Flux-Residual
  Residual-Control   Outer-Iter.   Inner-Iter.     Column Row Layer    Maximum-Head-Change  Column Row Layer    Maximum-Flux-Residual          L2-NORM 
          0                 1           2             5    8     1       0.1393111000E+00       5    8    1         0.7619841629E+01      0.1816459270E+02
          0                 2           2             5    7     1      -0.2247143144E+00       5    8    1        -0.1237834946E+02      0.3001380761E+02
          0                 3           2             4    7     1       0.1423993947E+00       5    8    1         0.7882608458E+01      0.1928280648E+02
          0                 4           2             4    7     1      -0.2105058240E+00       5    8    1        -0.1193870581E+02      0.2924276095E+02
          0                 5           2             4    7     1       0.2595361520E-02       4    7    1         0.1512584240E+00      0.3705840137E+00
          0                 6           1             4    7     1       0.3817054326E-04       5    8    1         0.2229049064E-02      0.5465616483E-02

    ------------------------------------------------
       NWT REQUIRED            6 OUTER ITERATIONS 
       AND A TOTAL OF         11 INNER ITERATIONS.
    ------------------------------------------------

 NO OUTPUT CONTROL FOR STRESS PERIOD   42   TIME STEP   28
 
 SOLVING FOR HEAD 
                                                   Max.-Head-Change                         Max.-Flux-Residual
  Residual-Control   Outer-Iter.   Inner-Iter.     Column Row Layer    Maximum-Head-Change  Column Row Layer    Maximum-Flux-Residual          L2-NORM 
          0                 1           2             5    8     1       0.1412671979E+00       5    8    1         0.7724853351E+01      0.1845270629E+02
          0                 2           2             5    7     1      -0.2249410892E+00       5    8    1        -0.1238885002E+02      0.3004274608E+02
          0                 3           2             4    7     1       0.1424166200E+00       5    8    1         0.7883343540E+01      0.1928480653E+02
          0                 4           2             4    7     1      -0.2105076483E+00       5    8    1        -0.1193873602E+02      0.2924284293E+02
          0                 5           2             4    7     1       0.2595384000E-02       4    7    1         0.1512588995E+00      0.3705849558E+00
          0                 6           1             4    7     1       0.3817087359E-04       5    8    1         0.2229054241E-02      0.5465627011E-02

    ------------------------------------------------
       NWT REQUIRED            6 OUTER ITERATIONS 
       AND A TOTAL OF         11 INNER ITERATIONS.
    ------------------------------------------------

 NO OUTPUT CONTROL FOR STRESS PERIOD   42   TIME STEP   29
 
 SOLVING FOR HEAD 
                                                   Max.-Head-Change                         Max.-Flux-Residual
  Residual-Control   Outer-Iter.   Inner-Iter.     Column Row Layer    Maximum-Head-Change  Column Row Layer    Maximum-Flux-Residual          L2-NORM 
          0                 1           2             5    8     1       0.1431613333E+00       5    8    1         0.7826473975E+01      0.1873286309E+02
          0                 2           2             5    7     1      -0.2251628398E+00       5    8    1        -0.1239901148E+02      0.3007099224E+02
          0                 3           2             4    7     1       0.1424336487E+00       5    8    1         0.7884054885E+01      0.1928675965E+02
          0                 4           2             4    7     1      -0.2105094593E+00       5    8    1        -0.1193876525E+02      0.2924292299E+02
          0                 5           2             4    7     1       0.2595406318E-02       4    7    1         0.1512593696E+00      0.3705858776E+00
          0                 6           1             4    7     1       0.3817120236E-04       5    8    1         0.2229059241E-02      0.5465637001E-02

    ------------------------------------------------
       NWT REQUIRED            6 OUTER ITERATIONS 
       AND A TOTAL OF         11 INNER ITERATIONS.
    ------------------------------------------------

 NO OUTPUT CONTROL FOR STRESS PERIOD   42   TIME STEP   30



 STREAM LISTING     PERIOD     42   STEP       30

 LAYER ROW COL. STREAM  RCH.  FLOW INTO     FLOW TO   FLOW OUT OF   OVRLND.     DIRECT     STREAM       STREAM     STREAM     STREAM   STREAMBED  STREAMBED
                SEG.NO.  NO.  STRM. RCH.    AQUIFER    STRM. RCH.    RUNOFF     PRECIP       ET          HEAD       DEPTH      WIDTH   CONDCTNC.   GRADIENT

   1    1    1     1     1    4.7249E+01  3.2762E-01   4.6921E+01  0.000E+00  0.000E+00  0.000E+00  1.09443E+03  1.381E+00  1.662E+01  7.477E-02  1.460E+00
   1    2    2     1     2    4.6921E+01  5.0759E-01   4.6413E+01  0.000E+00  0.000E+00  0.000E+00  1.08944E+03  1.379E+00  1.656E+01  1.159E-01  1.460E+00
   1    3    3     1     3    4.6413E+01  4.3309E-01   4.5980E+01  0.000E+00  0.000E+00  0.000E+00  1.08379E+03  1.376E+00  1.650E+01  9.898E-02  1.459E+00
   1    3    4     1     4    4.5980E+01  3.9899E-01   4.5581E+01  0.000E+00  0.000E+00  0.000E+00  1.07878E+03  1.373E+00  1.644E+01  9.124E-02  1.458E+00
   1    4    5     2     1    4.3581E+01  3.6514E-01   4.3216E+01  0.000E+00  0.000E+00  0.000E+00  1.07362E+03  1.681E+00  1.200E+01  7.800E-02  1.560E+00
   1    5    6     2     2    4.3216E+01  2.8042E-01   4.2936E+01  0.000E+00  0.000E+00  0.000E+00  1.06818E+03  1.674E+00  1.200E+01  6.000E-02  1.558E+00
   1    6    6     2     3    4.2936E+01  2.8003E-01   4.2656E+01  0.000E+00  0.000E+00  0.000E+00  1.06346E+03  1.667E+00  1.200E+01  6.000E-02  1.556E+00
   1    7    6     2     4    4.2656E+01  2.7964E-01   4.2376E+01  0.000E+00  0.000E+00  0.000E+00  1.05874E+03  1.661E+00  1.200E+01  6.000E-02  1.554E+00
   1    8    6     2     5    4.2376E+01  2.7924E-01   4.2097E+01  0.000E+00  0.000E+00  0.000E+00  1.05401E+03  1.654E+00  1.200E+01  6.000E-02  1.551E+00
   1    3    5     3     1    2.0000E+00  2.8252E-01   1.7175E+00  0.000E+00  0.000E+00  0.000E+00  1.07555E+03  1.909E+00  9.636E+00  7.227E-02  1.955E+00
   1    3    6     3     2    1.7175E+00  2.4905E-01   1.4684E+00  0.000E+00  0.000E+00  0.000E+00  1.07264E+03  1.727E+00  8.909E+00  6.682E-02  1.864E+00
   1    3    7     3     3    1.4684E+00  1.9718E-01   1.2712E+00  0.000E+00  0.000E+00  0.000E+00  1.06987E+03  1.555E+00  8.218E+00  5.547E-02  1.777E+00
   1    4    8     3     4    1.2712E+00  2.2567E-01   1.0456E+00  0.000E+00  0.000E+00  0.000E+00  1.06682E+03  1.364E+00  7.455E+00  6.709E-02  1.682E+00
   1    5    8     3     5    1.0456E+00  1.5790E-01   8.8768E-01  0.000E+00  0.000E+00  0.000E+00  1.06362E+03  1.164E+00  6.655E+00  4.991E-02  1.582E+00
   1    6    8     3     6    8.8768E-01  5.5980E-02   8.3170E-01  0.000E+00  0.000E+00  0.000E+00  1.06158E+03  1.036E+00  6.145E+00  1.844E-02  1.518E+00
   1    5   10     4     1    1.0000E+01  9.0919E-02   9.9091E+00  0.000E+00  0.000E+00  0.000E+00  1.07836E+03  6.368E-01  1.000E+01  2.500E-02  1.212E+00
   1    5    9     4     2    9.9091E+00  1.8158E-01   9.7275E+00  0.000E+00  0.000E+00  0.000E+00  1.07154E+03  6.315E-01  1.000E+01  5.000E-02  1.211E+00
   1    6    8     4     3    9.7275E+00  1.2689E-01   9.6006E+00  0.000E+00  0.000E+00  0.000E+00  1.06381E+03  6.256E-01  1.000E+01  3.500E-02  1.209E+00
   1    6    8     5     1    1.0432E+01  2.2686E-01   1.0205E+01  0.000E+00  0.000E+00  0.000E+00  1.05868E+03  6.790E-01  1.542E+01  6.166E-02  1.226E+00
   1    7    7     5     2    1.0205E+01  2.7894E-01   9.9265E+00  0.000E+00  0.000E+00  0.000E+00  1.05417E+03  6.732E-01  1.519E+01  7.594E-02  1.224E+00
   1    8    7     5     3    9.9265E+00  1.9221E-01   9.7343E+00  0.000E+00  0.000E+00  0.000E+00  1.04992E+03  6.676E-01  1.497E+01  5.241E-02  1.223E+00
   1    8    6     5     4    9.7343E+00  1.3577E-01   9.5985E+00  0.000E+00  0.000E+00  0.000E+00  1.04691E+03  6.637E-01  1.482E+01  3.706E-02  1.221E+00
   1    9    6     6     1    9.5985E+00  2.2097E-01   9.3776E+00  0.000E+00  0.000E+00  0.000E+00  1.04341E+03  6.828E-01  1.200E+01  6.000E-02  1.228E+00
   1   10    7     6     2    9.3776E+00  2.2039E-01   9.1572E+00  0.000E+00  0.000E+00  0.000E+00  1.03885E+03  6.732E-01  1.200E+01  6.000E-02  1.224E+00
   1   11    7     6     3    9.1572E+00  2.1981E-01   8.9374E+00  0.000E+00  0.000E+00  0.000E+00  1.03430E+03  6.636E-01  1.200E+01  6.000E-02  1.221E+00
   1   12    7     6     4    8.9374E+00  2.1923E-01   8.7181E+00  0.000E+00  0.000E+00  0.000E+00  1.02974E+03  6.539E-01  1.200E+01  6.000E-02  1.218E+00
   1   13    7     6     5    8.7181E+00 -1.3451E-01   8.8526E+00  0.000E+00  0.000E+00  0.000E+00  1.02656E+03  6.520E-01  1.200E+01  2.400E-01 -1.868E-01
   1   14    9     7     1    1.5000E+02  1.3464E+00   1.4865E+02  0.000E+00  0.000E+00  0.000E+00  1.03987E+03  2.288E+00  5.529E+01  5.593E-01  8.024E-01
   1   13    8     7     2    1.4865E+02  1.8315E+00   1.4682E+02  0.000E+00  0.000E+00  0.000E+00  1.03478E+03  2.279E+00  5.526E+01  6.148E-01  9.931E-01
   1   13    7     7     3    1.4682E+02  1.4343E+00   1.4539E+02  0.000E+00  0.000E+00  0.000E+00  1.02969E+03  2.271E+00  5.522E+01  5.585E-01  8.561E-01
   1   13    6     8     1    1.5424E+02  7.7798E-01   1.5346E+02  0.000E+00  0.000E+00  0.000E+00  1.02472E+03  2.844E+00  4.123E+01  4.202E-01  6.172E-01
   1   13    5     8     2    1.5346E+02  4.8198E-02   1.5341E+02  0.000E+00  0.000E+00  0.000E+00  1.01847E+03  2.841E+00  4.119E+01  4.198E-01  3.827E-02
   1   13    4     8     3    1.5341E+02 -2.8809E+00   1.5630E+02  0.000E+00  0.000E+00  0.000E+00  1.01223E+03  2.851E+00  4.133E+01  4.212E+00 -2.280E-01
   1   13    3     8     4    1.5630E+02 -3.8842E+00   1.6018E+02  0.000E+00  0.000E+00  0.000E+00  1.00600E+03  2.874E+00  4.167E+01  4.246E+00 -3.049E-01
   1   13    2     8     5    1.6018E+02 -2.7223E+00   1.6290E+02  0.000E+00  0.000E+00  0.000E+00  9.99771E+02  2.896E+00  4.200E+01  4.279E+00 -2.120E-01
   1   13    1     8     6    1.6290E+02 -2.1257E+00   1.6503E+02  0.000E+00  0.000E+00  0.000E+00  9.94787E+02  2.912E+00  4.223E+01  2.582E+00 -2.744E-01
   1    8    6     9     1    4.2097E+01  0.0000E+00   4.2097E+01  0.000E+00  0.000E+00  0.000E+00  1.08412E+03  5.368E+00  4.000E+00  0.000E+00  2.789E+00
   1    8    5     9     2    4.2097E+01  0.0000E+00   4.2097E+01  0.000E+00  0.000E+00  0.000E+00  1.08362E+03  5.368E+00  4.000E+00  0.000E+00  2.789E+00





UNSATURATED ZONE PACKAGE VOLUMETRIC BUDGET FOR  TIME STEP    30 STRESS PERIOD   42
  ------------------------------------------------------------------------------



     CUMULATIVE VOLUMES      L**3       RATES FOR THIS TIME STEP      L**3/T
     ------------------                 ------------------------

           IN:                                      IN:
           ---                                      ---
        INFILTRATION =  4691288071.2378          INFILTRATION =         140.2450

          OUT:                                     OUT:
          ----                                     ----
              UZF ET =  1320847427.2949                UZF ET =           8.3175
        UZF RECHARGE =  2716293710.6995          UZF RECHARGE =       0.0000E+00

            IN - OUT =   654146933.2434              IN - OUT =         131.9275

          STORAGE:                                 STORAGE:
          --------                                 --------
      STORAGE CHANGE =   654137700.9938        STORAGE CHANGE =         131.9275

 PERCENT DISCREPANCY IS DIFFERENCE BETWEEN IN-OUT MINUS CHANGE IN STORAGE
 DIVIDED BY THE AVERAGE OF IN AND OUT TIMES 100

 PERCENT DISCREPANCY =           0.00     PERCENT DISCREPANCY =           0.00






1
  VOLUMETRIC BUDGET FOR AGRICULTURAL FIELDS AT  END OF TIME STEP   30, STRESS PERIOD  42
  ------------------------------------------------------------------------------

     CUMULATIVE VOLUMES      L**3       RATES FOR THIS TIME STEP      L**3/T
     ------------------                 ------------------------

           IN:                                      IN:
           ---                                      ---
           AG WELLS      =  2951730176.0000             AG WELLS      =          97.2999
      DIVERSION SEGMENTS =  1648082944.0000        DIVERSION SEGMENTS =          42.0968
           GW IRRIGATION =           0.0000             GW IRRIGATION =           0.0000
           SW IRRIGATION =           0.0000             SW IRRIGATION =           0.0000
        SYSTEM LOSSES GW =           0.0000          SYSTEM LOSSES GW =           0.0000
        SYSTEM LOSSES SW =           0.0000          SYSTEM LOSSES SW =           0.0000

                TOTAL IN =  4599813120.0000                  TOTAL IN =         139.3967

          OUT:                                     OUT:
          ----                                     ----
           AG WELLS      =           0.0000             AG WELLS      =           0.0000
      DIVERSION SEGMENTS =           0.0000        DIVERSION SEGMENTS =           0.0000
           GW IRRIGATION =  2951730176.0000             GW IRRIGATION =          97.2999
           SW IRRIGATION =  1648115072.0000             SW IRRIGATION =          42.0977
        SYSTEM LOSSES GW =           0.0000          SYSTEM LOSSES GW =           0.0000
        SYSTEM LOSSES SW =           0.0000          SYSTEM LOSSES SW =           0.0000

               TOTAL OUT =  4599845376.0000                 TOTAL OUT =         139.3975

                IN - OUT =      -32256.0000                  IN - OUT =      -8.3923E-04

     PERCENT DISCREPANCY =          -0.00         PERCENT DISCREPANCY =          -0.00



1
  VOLUMETRIC BUDGET FOR ENTIRE MODEL AT END OF TIME STEP   30, STRESS PERIOD  42
  ------------------------------------------------------------------------------

     CUMULATIVE VOLUMES      L**3       RATES FOR THIS TIME STEP      L**3/T
     ------------------                 ------------------------

           IN:                                      IN:
           ---                                      ---
             STORAGE     =  2989163008.0000               STORAGE     =          99.0558
       CONSTANT HEAD     =           0.0000         CONSTANT HEAD     =           0.0000
     HEAD DEP BOUNDS     =    30887648.0000       HEAD DEP BOUNDS     =           0.2865
      STREAM LEAKAGE     =  1292965632.0000        STREAM LEAKAGE     =          11.8720
        UZF RECHARGE     =  2716292608.0000          UZF RECHARGE     =           0.0000
               GW ET     =           0.0000                 GW ET     =           0.0000
     SURFACE LEAKAGE     =           0.0000       SURFACE LEAKAGE     =           0.0000
           AG WELLS      =           0.0000             AG WELLS      =           0.0000

                TOTAL IN =  7029308928.0000                  TOTAL IN =         111.2143

          OUT:                                     OUT:
          ----                                     ----
             STORAGE     =  2883052800.0000               STORAGE     =           1.8775
       CONSTANT HEAD     =           0.0000         CONSTANT HEAD     =           0.0000
     HEAD DEP BOUNDS     =    31279728.0000       HEAD DEP BOUNDS     =           0.2892
      STREAM LEAKAGE     =  1162451200.0000        STREAM LEAKAGE     =          11.7475
        UZF RECHARGE     =           0.0000          UZF RECHARGE     =           0.0000
               GW ET     =      831874.7500                 GW ET     =           0.0000
     SURFACE LEAKAGE     =           0.0000       SURFACE LEAKAGE     =           0.0000
           AG WELLS      =  2951730176.0000             AG WELLS      =          97.2999

               TOTAL OUT =  7029345792.0000                 TOTAL OUT =         111.2141

                IN - OUT =      -36864.0000                  IN - OUT =       1.8311E-04

     PERCENT DISCREPANCY =          -0.00         PERCENT DISCREPANCY =           0.00






         TIME SUMMARY AT END OF TIME STEP   30 IN STRESS PERIOD   42
                    SECONDS     MINUTES      HOURS       DAYS        YEARS
                    -----------------------------------------------------------
   TIME STEP LENGTH  87667.      1461.1      24.352      1.0147     2.77799E-03
 STRESS PERIOD TIME 2.63000E+06  43833.      730.56      30.440     8.33397E-02
         TOTAL TIME 1.07916E+08 1.79859E+06  29977.      1249.0      3.4196    
1
1
                            STRESS PERIOD NO.   43, LENGTH =   2630000.    
                            -----------------------------------------------

                              NUMBER OF TIME STEPS =    30

                               MULTIPLIER FOR DELT =     1.000

                            INITIAL TIME STEP SIZE =   87666.66    

 REUSING NON-PARAMETER GHB CELLS FROM LAST STRESS PERIOD

      2 GHB CELLS

 REUSING STREAM SEGMENT DATA FROM LAST STRESS PERIOD



            AREAL INFILTRATION RATE
 READING ON UNIT   19 WITH FORMAT: (FREE)              

            1           2           3           4           5           6           7           8           9          10
 ........................................................................................................................
   1   1.0000E-10  2.0000E-10   0.000       0.000       0.000       0.000       0.000       0.000       0.000       0.000    
   2   2.0000E-10  1.0000E-10  2.0000E-10   0.000       0.000      8.0000E-10  8.0000E-10  5.0000E-10   0.000       0.000    
   3    0.000      5.0000E-10  1.0000E-10  1.0000E-10  8.0000E-10  8.0000E-10  5.0000E-10  5.0000E-10   0.000       0.000    
   4   8.0000E-10  5.0000E-10  1.0000E-10  1.0000E-10  1.0000E-10  1.0000E-10  1.0000E-10  1.0000E-10  2.0000E-10   0.000    
   5   8.0000E-10  5.0000E-10  1.0000E-10  1.0000E-10  1.0000E-10  1.0000E-10  1.0000E-10  1.0000E-10  1.0000E-10  1.0000E-10
   6   8.0000E-10  5.0000E-10  5.0000E-10  2.0000E-10  2.0000E-10  1.0000E-10  1.0000E-10  1.0000E-10  1.0000E-10  5.0000E-10
   7   8.0000E-10  5.0000E-10  5.0000E-10  2.0000E-10  2.0000E-10  1.0000E-10  1.0000E-10  2.0000E-10  2.0000E-10   0.000    
   8    0.000      5.0000E-10  5.0000E-10  2.0000E-10  2.0000E-10  1.0000E-10  1.0000E-10  2.0000E-10  5.0000E-10   0.000    
   9    0.000      5.0000E-10  5.0000E-10  2.0000E-10  2.0000E-10  1.0000E-10  1.0000E-10  2.0000E-10  5.0000E-10   0.000    
  10    0.000      5.0000E-10  5.0000E-10  2.0000E-10  2.0000E-10  1.0000E-10  1.0000E-10  2.0000E-10  5.0000E-10  8.0000E-10
  11    0.000      1.0000E-10  1.0000E-10  1.0000E-10  1.0000E-10  1.0000E-10  1.0000E-10  2.0000E-10  5.0000E-10   0.000    
  12   1.0000E-10  1.0000E-10  1.0000E-10  1.0000E-10  1.0000E-10  1.0000E-10  1.0000E-10  1.0000E-10  2.0000E-10   0.000    
  13   1.0000E-10  1.0000E-10  2.0000E-10  2.0000E-10  2.0000E-10  2.0000E-10  2.0000E-10  1.0000E-10  1.0000E-10   0.000    
  14    0.000      2.0000E-10  5.0000E-10  5.0000E-10  5.0000E-10  5.0000E-10  5.0000E-10  2.0000E-10  1.0000E-10   0.000    
  15    0.000       0.000      8.0000E-10  8.0000E-10  8.0000E-10  8.0000E-10   0.000       0.000       0.000       0.000    

                  ET RATE =  1.500000E-07

 USING ET EXTINCTION DEPTH FROM PREVIOUS STRESS PERIOD. CURRENT PERIOD IS:      43

 USING EXTINCTION WATER CONTENT FROM PREVIOUS STRESS PERIOD. CURRENT PERIOD IS:      43

 USING AIR ENTRY PRESSURE FROM PREVIOUS STRESS PERIOD. CURRENT PERIOD IS:      43

 USING ROOT PRESSURE HEAD FROM PREVIOUS STRESS PERIOD. CURRENT PERIOD IS:      43

 USING ROOT ACTIVITY FROM PREVIOUS STRESS PERIOD. CURRENT PERIOD IS:      43

 PROCESSING AG STRESS PERIOD DATA

 READING AG STRESS PERIOD DATA

 READING IRRIGATION SEGMENT

 READING IRRIGATION WELL

 READING SUPPLEMENTAL WELL

 END PROCESSING AG STRESS PERIOD DATA OPTIONS
 
 SOLVING FOR HEAD 
                                                   Max.-Head-Change                         Max.-Flux-Residual
  Residual-Control   Outer-Iter.   Inner-Iter.     Column Row Layer    Maximum-Head-Change  Column Row Layer    Maximum-Flux-Residual          L2-NORM 
          0                 1           2             5    8     1       0.1449962563E+00       5    8    1         0.7924873290E+01      0.1895952867E+02
          0                 2           2             5    8     1      -0.1410379626E-01       5    8    1        -0.7924605847E+00      0.1896017911E+01
          0                 3           2             5    8     1       0.9604200095E-03       5    8    1         0.5547251790E-01      0.1327181077E+00
          0                 4           1             5    8     1      -0.3821599400E-04       5    8    1        -0.2268827981E-02      0.5427919428E-02

    ------------------------------------------------
       NWT REQUIRED            4 OUTER ITERATIONS 
       AND A TOTAL OF          7 INNER ITERATIONS.
    ------------------------------------------------

 NO OUTPUT CONTROL FOR STRESS PERIOD   43   TIME STEP    1
 
 SOLVING FOR HEAD 
                                                   Max.-Head-Change                         Max.-Flux-Residual
  Residual-Control   Outer-Iter.   Inner-Iter.     Column Row Layer    Maximum-Head-Change  Column Row Layer    Maximum-Flux-Residual          L2-NORM 
          0                 1           2             5    8     1       0.1379822429E+00       5    8    1         0.7534877396E+01      0.1827645548E+02
          0                 2           2             5    8     1      -0.1342155691E-01       5    8    1        -0.7534632866E+00      0.1827305573E+01
          0                 3           2             5    8     1       0.9139617172E-03       5    8    1         0.5274268418E-01      0.1278893855E+00
          0                 4           1             5    8     1      -0.3636737608E-04       5    8    1        -0.2157177707E-02      0.5229277824E-02

    ------------------------------------------------
       NWT REQUIRED            4 OUTER ITERATIONS 
       AND A TOTAL OF          7 INNER ITERATIONS.
    ------------------------------------------------

 NO OUTPUT CONTROL FOR STRESS PERIOD   43   TIME STEP    2
 
 SOLVING FOR HEAD 
                                                   Max.-Head-Change                         Max.-Flux-Residual
  Residual-Control   Outer-Iter.   Inner-Iter.     Column Row Layer    Maximum-Head-Change  Column Row Layer    Maximum-Flux-Residual          L2-NORM 
          0                 1           2             5    8     1       0.1314235143E+00       5    8    1         0.7170386768E+01      0.1759465366E+02
          0                 2           2             5    6     1      -0.8084522002E-01       5    8    1        -0.4462016420E+01      0.1073978779E+02
          0                 3           2             4    7     1       0.7318200685E-01       5    8    1         0.4057340539E+01      0.9919434568E+01
          0                 4           2             4    7     1      -0.2912010193E-02       5    8    1        -0.1659091213E+00      0.4056544185E+00
          0                 5           1             4    7     1       0.3590629985E-04       5    6    1         0.2100266125E-02      0.5141691881E-02

    ------------------------------------------------
       NWT REQUIRED            5 OUTER ITERATIONS 
       AND A TOTAL OF          9 INNER ITERATIONS.
    ------------------------------------------------

 NO OUTPUT CONTROL FOR STRESS PERIOD   43   TIME STEP    3
 
 SOLVING FOR HEAD 
                                                   Max.-Head-Change                         Max.-Flux-Residual
  Residual-Control   Outer-Iter.   Inner-Iter.     Column Row Layer    Maximum-Head-Change  Column Row Layer    Maximum-Flux-Residual          L2-NORM 
          0                 1           2             5    8     1       0.1252857826E+00       5    8    1         0.6829550216E+01      0.1695890813E+02
          0                 2           2             5    8     1      -0.1218659405E-01       5    8    1        -0.6829344954E+00      0.1701127646E+01
          0                 3           2             4    7     1      -0.6921008609E-01       4    7    1        -0.3714795399E+01      0.9115228695E+01
          0                 4           2             4    7     1       0.7259469041E-01       4    7    1         0.4005078114E+01      0.9808805430E+01
          0                 5           2             4    7     1      -0.2889326511E-02       5    8    1        -0.1638531569E+00      0.4013766362E+00
          0                 6           1             4    7     1       0.3565304845E-04       5    8    1         0.2078713818E-02      0.5092204868E-02

    ------------------------------------------------
       NWT REQUIRED            6 OUTER ITERATIONS 
       AND A TOTAL OF         11 INNER ITERATIONS.
    ------------------------------------------------

 NO OUTPUT CONTROL FOR STRESS PERIOD   43   TIME STEP    4
 
 SOLVING FOR HEAD 
                                                   Max.-Head-Change                         Max.-Flux-Residual
  Residual-Control   Outer-Iter.   Inner-Iter.     Column Row Layer    Maximum-Head-Change  Column Row Layer    Maximum-Flux-Residual          L2-NORM 
          0                 1           2             5    6     1       0.1197323162E+00       5    8    1         0.6510595114E+01      0.1635937211E+02
          0                 2           2             5    6     1      -0.1164640977E-01       5    8    1        -0.6510406194E+00      0.1641343559E+01
          0                 3           2             4    7     1      -0.6920793958E-01       4    7    1        -0.3714624323E+01      0.9118093772E+01
          0                 4           2             4    7     1       0.7259467588E-01       4    7    1         0.4005065591E+01      0.9809009134E+01
          0                 5           2             4    7     1      -0.2889325924E-02       5    8    1        -0.1638594166E+00      0.4013848903E+00
          0                 6           1             4    7     1       0.3565304195E-04       5    8    1         0.2078792378E-02      0.5092311571E-02

    ------------------------------------------------
       NWT REQUIRED            6 OUTER ITERATIONS 
       AND A TOTAL OF         11 INNER ITERATIONS.
    ------------------------------------------------

 NO OUTPUT CONTROL FOR STRESS PERIOD   43   TIME STEP    5
 
 SOLVING FOR HEAD 
                                                   Max.-Head-Change                         Max.-Flux-Residual
  Residual-Control   Outer-Iter.   Inner-Iter.     Column Row Layer    Maximum-Head-Change  Column Row Layer    Maximum-Flux-Residual          L2-NORM 
          0                 1           2             5    8     1       0.4187002921E+00       5    8    1         0.2303566417E+02      0.2723063074E+02
          0                 2           2             5    8     1       0.1896895928E+00       5    8    1         0.1048177787E+02      0.1058328049E+02
          0                 3           2             4    7     1      -0.6916720845E-01       4    7    1        -0.3714502412E+01      0.8390511119E+01
          0                 4           2             5    8     1       0.7712410578E-01       5    8    1         0.4135519470E+01      0.9863565421E+01
          0                 5           2             5    8     1       0.3490702690E-01       5    8    1         0.1932053067E+01      0.1965882150E+01
          0                 6           2             5    8     1       0.1579905351E-01       5    8    1         0.8721057454E+00      0.8721401464E+00
          0                 7           2             5    8     1       0.7150714495E-02       5    8    1         0.3947348116E+00      0.3947424788E+00
          0                 8           1             5    8     1       0.3236441764E-02       5    8    1         0.1786589595E+00      0.1786623690E+00
          0                 9           1             5    8     1       0.1464826376E-02       5    8    1         0.8086179517E-01      0.8086333703E-01
          0                10           1             5    8     1       0.6629862235E-03       5    8    1         0.3659837746E-01      0.3659907510E-01
                                                   Max.-Head-Change                         Max.-Flux-Residual
  Residual-Control   Outer-Iter.   Inner-Iter.     Column Row Layer    Maximum-Head-Change  Column Row Layer    Maximum-Flux-Residual          L2-NORM 
          0                11           1             5    8     1       0.3000701919E-03       5    8    1         0.1656457259E-01      0.1656488833E-01
          0                12           1             5    8     1       0.1358129580E-03       5    8    1         0.7497191677E-02      0.7497334614E-02
          0                13           1             5    8     1       0.6146948273E-04       5    8    1         0.3393258795E-02      0.3393323437E-02

    ------------------------------------------------
       NWT REQUIRED           13 OUTER ITERATIONS 
       AND A TOTAL OF         20 INNER ITERATIONS.
    ------------------------------------------------

 NO OUTPUT CONTROL FOR STRESS PERIOD   43   TIME STEP    6
 
 SOLVING FOR HEAD 
                                                   Max.-Head-Change                         Max.-Flux-Residual
  Residual-Control   Outer-Iter.   Inner-Iter.     Column Row Layer    Maximum-Head-Change  Column Row Layer    Maximum-Flux-Residual          L2-NORM 
          0                 1           2             5    8     1       0.4652214698E+00       5    8    1         0.2555973100E+02      0.2931351339E+02
          0                 2           2             5    8     1       0.2105379408E+00       5    8    1         0.1163734553E+02      0.1172622935E+02
          0                 3           2             4    7     1      -0.6915829899E-01       4    7    1        -0.3714308362E+01      0.8466275088E+01
          0                 4           2             5    8     1       0.8138586409E-01       5    8    1         0.4371066294E+01      0.9964702092E+01
          0                 5           2             5    8     1       0.3683114757E-01       5    8    1         0.2038550905E+01      0.2070601677E+01
          0                 6           2             5    8     1       0.1666775137E-01       5    8    1         0.9201825243E+00      0.9202140569E+00
          0                 7           2             5    8     1       0.7542910144E-02       5    8    1         0.4164397570E+00      0.4164465748E+00
          0                 8           1             5    8     1       0.3413507365E-02       5    8    1         0.1884582219E+00      0.1884612491E+00
          0                 9           1             5    8     1       0.1544766170E-02       5    8    1         0.8528589783E-01      0.8528726654E-01
          0                10           1             5    8     1       0.6990764207E-03       5    8    1         0.3859572780E-01      0.3859634701E-01
                                                   Max.-Head-Change                         Max.-Flux-Residual
  Residual-Control   Outer-Iter.   Inner-Iter.     Column Row Layer    Maximum-Head-Change  Column Row Layer    Maximum-Flux-Residual          L2-NORM 
          0                11           1             5    8     1       0.3163636350E-03       5    8    1         0.1746631105E-01      0.1746659120E-01
          0                12           1             5    8     1       0.1431688247E-03       5    8    1         0.7904294659E-02      0.7904421406E-02
          0                13           1             5    8     1       0.6479035524E-04       5    8    1         0.3577050259E-02      0.3577107610E-02

    ------------------------------------------------
       NWT REQUIRED           13 OUTER ITERATIONS 
       AND A TOTAL OF         20 INNER ITERATIONS.
    ------------------------------------------------

 NO OUTPUT CONTROL FOR STRESS PERIOD   43   TIME STEP    7
 
 SOLVING FOR HEAD 
                                                   Max.-Head-Change                         Max.-Flux-Residual
  Residual-Control   Outer-Iter.   Inner-Iter.     Column Row Layer    Maximum-Head-Change  Column Row Layer    Maximum-Flux-Residual          L2-NORM 
          0                 1           2             5    8     1       0.4131600678E+00       5    8    1         0.2264969430E+02      0.2681334558E+02
          0                 2           2             5    8     1       0.1869559237E+00       5    8    1         0.1034010455E+02      0.1044002571E+02
          0                 3           2             4    7     1      -0.6915687160E-01       4    7    1        -0.3714033571E+01      0.8379374447E+01
          0                 4           2             5    8     1       0.7654950863E-01       5    8    1         0.4104245408E+01      0.9850267165E+01
          0                 5           2             5    8     1       0.3463851996E-01       5    8    1         0.1917676423E+01      0.1951747319E+01
          0                 6           2             5    8     1       0.1567370763E-01       5    8    1         0.8653806145E+00      0.8654124838E+00
          0                 7           2             5    8     1       0.7092254557E-02       5    8    1         0.3915955436E+00      0.3916020068E+00
          0                 8           1             5    8     1       0.3209200703E-02       5    8    1         0.1771949487E+00      0.1771978120E+00
          0                 9           1             5    8     1       0.1452143176E-02       5    8    1         0.8017964263E-01      0.8018093700E-01
          0                10           1             5    8     1       0.6570856703E-03       5    8    1         0.3628079324E-01      0.3628137875E-01
                                                   Max.-Head-Change                         Max.-Flux-Residual
  Residual-Control   Outer-Iter.   Inner-Iter.     Column Row Layer    Maximum-Head-Change  Column Row Layer    Maximum-Flux-Residual          L2-NORM 
          0                11           1             5    8     1       0.2973271401E-03       5    8    1         0.1641683301E-01      0.1641709788E-01
          0                12           1             5    8     1       0.1345386637E-03       5    8    1         0.7428514323E-02      0.7428634146E-02
          0                13           1             5    8     1       0.6087790058E-04       5    8    1         0.3361356225E-02      0.3361410436E-02

    ------------------------------------------------
       NWT REQUIRED           13 OUTER ITERATIONS 
       AND A TOTAL OF         20 INNER ITERATIONS.
    ------------------------------------------------

 NO OUTPUT CONTROL FOR STRESS PERIOD   43   TIME STEP    8
 
 SOLVING FOR HEAD 
                                                   Max.-Head-Change                         Max.-Flux-Residual
  Residual-Control   Outer-Iter.   Inner-Iter.     Column Row Layer    Maximum-Head-Change  Column Row Layer    Maximum-Flux-Residual          L2-NORM 
          0                 1           2             5    8     1       0.3677569886E+00       5    8    1         0.2011331688E+02      0.2473290685E+02
          0                 2           2             5    8     1       0.1506122499E+00       5    8    1         0.8337050854E+01      0.8461372831E+01
          0                 3           2             4    7     1      -0.6916307857E-01       4    7    1        -0.3713660721E+01      0.8335221399E+01
          0                 4           2             4    7     1       0.7259209765E-01       4    7    1         0.4004996609E+01      0.9627259062E+01
          0                 5           2             5    8     1       0.2753148470E-01       5    8    1         0.1611793793E+01      0.1652913365E+01
          0                 6           2             5    8     1       0.1208723116E-01       5    8    1         0.7053314501E+00      0.7053517127E+00
          0                 7           1             5    8     1       0.5306633514E-02       5    8    1         0.3096759260E+00      0.3096773306E+00
          0                 8           1             5    8     1       0.2329732868E-02       5    8    1         0.1359538396E+00      0.1359544198E+00
          0                 9           1             5    8     1       0.1022793288E-02       5    8    1         0.5968555269E-01      0.5968580685E-01
          0                10           1             5    8     1       0.4490185660E-03       5    8    1         0.2620242830E-01      0.2620253986E-01
                                                   Max.-Head-Change                         Max.-Flux-Residual
  Residual-Control   Outer-Iter.   Inner-Iter.     Column Row Layer    Maximum-Head-Change  Column Row Layer    Maximum-Flux-Residual          L2-NORM 
          0                11           1             5    8     1       0.1971221395E-03       5    8    1         0.1150293070E-01      0.1150297968E-01
          0                12           1             5    8     1       0.8653687026E-04       5    8    1         0.5049752846E-02      0.5049774343E-02

    ------------------------------------------------
       NWT REQUIRED           12 OUTER ITERATIONS 
       AND A TOTAL OF         18 INNER ITERATIONS.
    ------------------------------------------------

 NO OUTPUT CONTROL FOR STRESS PERIOD   43   TIME STEP    9
 
 SOLVING FOR HEAD 
                                                   Max.-Head-Change                         Max.-Flux-Residual
  Residual-Control   Outer-Iter.   Inner-Iter.     Column Row Layer    Maximum-Head-Change  Column Row Layer    Maximum-Flux-Residual          L2-NORM 
          0                 1           2             5    8     1       0.1547999702E+00       5    8    1         0.8331074624E+01      0.1663750540E+02
          0                 2           2             5    8     1       0.6315755482E-01       5    8    1         0.3506523914E+01      0.3793071717E+01
          0                 3           2             4    7     1      -0.6917283285E-01       4    7    1        -0.3713349918E+01      0.8647350055E+01
          0                 4           2             4    7     1       0.7258590371E-01       4    7    1         0.4004974675E+01      0.9353305832E+01
          0                 5           2             5    8     1       0.2130230331E-01       5    8    1         0.1247127306E+01      0.1299834918E+01
          0                 6           2             5    8     1       0.9361837123E-02       5    8    1         0.5457843177E+00      0.5458086405E+00
          0                 7           1             5    8     1       0.4114250246E-02       5    8    1         0.2398743650E+00      0.2398753935E+00
          0                 8           1             5    8     1       0.1808069460E-02       5    8    1         0.1054157875E+00      0.1054161982E+00
          0                 9           1             5    8     1       0.7945738043E-03       5    8    1         0.4632557521E-01      0.4632575513E-01
          0                10           1             5    8     1       0.3491789660E-03       5    8    1         0.2035778635E-01      0.2035786541E-01
                                                   Max.-Head-Change                         Max.-Flux-Residual
  Residual-Control   Outer-Iter.   Inner-Iter.     Column Row Layer    Maximum-Head-Change  Column Row Layer    Maximum-Flux-Residual          L2-NORM 
          0                11           1             5    8     1       0.1534463605E-03       5    8    1         0.8946124334E-02      0.8946159088E-02
          0                12           1             5    8     1       0.6743102967E-04       5    8    1         0.3931279956E-02      0.3931295259E-02

    ------------------------------------------------
       NWT REQUIRED           12 OUTER ITERATIONS 
       AND A TOTAL OF         18 INNER ITERATIONS.
    ------------------------------------------------

 NO OUTPUT CONTROL FOR STRESS PERIOD   43   TIME STEP   10
 
 SOLVING FOR HEAD 
                                                   Max.-Head-Change                         Max.-Flux-Residual
  Residual-Control   Outer-Iter.   Inner-Iter.     Column Row Layer    Maximum-Head-Change  Column Row Layer    Maximum-Flux-Residual          L2-NORM 
          0                 1           2             4    8     1       0.2950180913E+00       4    8    1         0.1587217909E+02      0.2149250730E+02
          0                 2           2             4    8     1       0.1238608471E+00       4    8    1         0.6676128308E+01      0.7666295201E+01
          0                 3           2             4    7     1      -0.6833660647E-01       4    6    1        -0.3711549487E+01      0.7619023906E+01
          0                 4           2             4    7     1       0.7198515931E-01       4    6    1         0.4004877851E+01      0.8481566081E+01
          0                 5           2             4    8     1       0.2678262586E-01       4    8    1         0.1519376055E+01      0.2273045925E+01
          0                 6           2             4    8     1       0.1214629876E-01       4    8    1         0.6880626507E+00      0.1018416002E+01
          0                 7           2             4    8     1       0.5508626079E-02       4    8    1         0.3120465468E+00      0.4607682679E+00
          0                 8           2             4    8     1       0.2498327375E-02       4    8    1         0.1415178470E+00      0.2084777489E+00
          0                 9           2             4    8     1       0.1133079893E-02       4    8    1         0.6418140838E-01      0.9433272978E-01
          0                10           2             4    8     1       0.5138961720E-03       4    8    1         0.2910798925E-01      0.4268632530E-01
                                                   Max.-Head-Change                         Max.-Flux-Residual
  Residual-Control   Outer-Iter.   Inner-Iter.     Column Row Layer    Maximum-Head-Change  Column Row Layer    Maximum-Flux-Residual          L2-NORM 
          0                11           2             4    8     1       0.2330733015E-03       4    8    1         0.1320136020E-01      0.1931687136E-01
          0                12           2             4    8     1       0.1057086920E-03       4    8    1         0.5987249076E-02      0.8741874588E-02
          0                13           1             4    8     1       0.4794338583E-04       4    8    1         0.2715419181E-02      0.3956310633E-02

    ------------------------------------------------
       NWT REQUIRED           13 OUTER ITERATIONS 
       AND A TOTAL OF         25 INNER ITERATIONS.
    ------------------------------------------------

 NO OUTPUT CONTROL FOR STRESS PERIOD   43   TIME STEP   11
 
 SOLVING FOR HEAD 
                                                   Max.-Head-Change                         Max.-Flux-Residual
  Residual-Control   Outer-Iter.   Inner-Iter.     Column Row Layer    Maximum-Head-Change  Column Row Layer    Maximum-Flux-Residual          L2-NORM 
          0                 1           2             5    7     1       0.3505281059E+00       5    7    1         0.1890430944E+02      0.3395535724E+02
          0                 2           2             5    7     1       0.1465429762E+00       5    7    1         0.7927665557E+01      0.1381918050E+02
          0                 3           2             4    7     1      -0.6737410047E-01       4    6    1        -0.3708711571E+01      0.5856932910E+01
          0                 4           2             4    7     1       0.7232337560E-01       4    6    1         0.4004676842E+01      0.8725201274E+01
          0                 5           2             5    7     1       0.2844555541E-01       5    7    1         0.1618718758E+01      0.3053886039E+01
          0                 6           2             5    7     1       0.1285962211E-01       5    7    1         0.7305836558E+00      0.1374222501E+01
          0                 7           2             5    7     1       0.5813198235E-02       5    7    1         0.3302782965E+00      0.6210533562E+00
          0                 8           2             5    7     1       0.2627704666E-02       5    7    1         0.1492988210E+00      0.2806947906E+00
          0                 9           2             4    8     1       0.1188537865E-02       5    7    1         0.6748495664E-01      0.1268751842E+00
          0                10           2             4    8     1       0.5390534140E-03       4    8    1         0.3053230540E-01      0.5735274230E-01
                                                   Max.-Head-Change                         Max.-Flux-Residual
  Residual-Control   Outer-Iter.   Inner-Iter.     Column Row Layer    Maximum-Head-Change  Column Row Layer    Maximum-Flux-Residual          L2-NORM 
          0                11           2             4    8     1       0.2444983653E-03       4    8    1         0.1384751701E-01      0.2592776247E-01
          0                12           2             4    8     1       0.1109030825E-03       4    8    1         0.6280719887E-02      0.1172215635E-01
          0                13           1             4    8     1       0.5030749008E-04       4    8    1         0.2848854571E-02      0.5300050767E-02

    ------------------------------------------------
       NWT REQUIRED           13 OUTER ITERATIONS 
       AND A TOTAL OF         25 INNER ITERATIONS.
    ------------------------------------------------

 NO OUTPUT CONTROL FOR STRESS PERIOD   43   TIME STEP   12
 
 SOLVING FOR HEAD 
                                                   Max.-Head-Change                         Max.-Flux-Residual
  Residual-Control   Outer-Iter.   Inner-Iter.     Column Row Layer    Maximum-Head-Change  Column Row Layer    Maximum-Flux-Residual          L2-NORM 
          0                 1           2             5    7     1       0.3257704277E+00       5    7    1         0.1756660495E+02      0.3112318954E+02
          0                 2           2             5    7     1       0.1359773859E+00       5    7    1         0.7367998436E+01      0.1256521621E+02
          0                 3           2             4    7     1      -0.6740089541E-01       4    6    1        -0.3706810874E+01      0.6018728676E+01
          0                 4           2             4    7     1       0.7226769310E-01       4    6    1         0.4004542358E+01      0.8555554202E+01
          0                 5           2             5    7     1       0.2758084043E-01       5    7    1         0.1570304793E+01      0.2944823647E+01
          0                 6           2             5    7     1       0.1246054085E-01       5    7    1         0.7083444899E+00      0.1321164512E+01
          0                 7           2             5    7     1       0.5628180326E-02       5    7    1         0.3200106649E+00      0.5954085137E+00
          0                 8           2             4    8     1       0.2546954855E-02       5    7    1         0.1445370151E+00      0.2683391323E+00
          0                 9           2             4    8     1       0.1154057009E-02       4    8    1         0.6542561453E-01      0.1209395264E+00
          0                10           2             4    8     1       0.5228654639E-03       4    8    1         0.2964431291E-01      0.5450882936E-01
                                                   Max.-Head-Change                         Max.-Flux-Residual
  Residual-Control   Outer-Iter.   Inner-Iter.     Column Row Layer    Maximum-Head-Change  Column Row Layer    Maximum-Flux-Residual          L2-NORM 
          0                11           2             4    8     1       0.2368706103E-03       4    8    1         0.1343048755E-01      0.2456850530E-01
          0                12           2             4    8     1       0.1072982540E-03       4    8    1         0.6084162923E-02      0.1107395955E-01
          0                13           1             4    8     1       0.4859993710E-04       4    8    1         0.2755943355E-02      0.4991585962E-02

    ------------------------------------------------
       NWT REQUIRED           13 OUTER ITERATIONS 
       AND A TOTAL OF         25 INNER ITERATIONS.
    ------------------------------------------------

 NO OUTPUT CONTROL FOR STRESS PERIOD   43   TIME STEP   13
 
 SOLVING FOR HEAD 
                                                   Max.-Head-Change                         Max.-Flux-Residual
  Residual-Control   Outer-Iter.   Inner-Iter.     Column Row Layer    Maximum-Head-Change  Column Row Layer    Maximum-Flux-Residual          L2-NORM 
          0                 1           2             5    7     1       0.3026992098E+00       5    7    1         0.1630692725E+02      0.2912530285E+02
          0                 2           2             5    7     1       0.1262703916E+00       5    7    1         0.6847775773E+01      0.1164791022E+02
          0                 3           2             4    7     1      -0.6742919937E-01       4    6    1        -0.3705175201E+01      0.6181629497E+01
          0                 4           2             4    7     1       0.7221718913E-01       4    6    1         0.4004426986E+01      0.8428446445E+01
          0                 5           2             5    7     1       0.2681686710E-01       5    7    1         0.1527010112E+01      0.2864229970E+01
          0                 6           2             5    7     1       0.1211323314E-01       5    7    1         0.6887176023E+00      0.1282907627E+01
          0                 7           2             4    8     1       0.5473549126E-02       5    7    1         0.3110862531E+00      0.5773641598E+00
          0                 8           2             4    8     1       0.2479407589E-02       4    8    1         0.1406036314E+00      0.2598509244E+00
          0                 9           2             4    8     1       0.1122918222E-02       4    8    1         0.6368833820E-01      0.1169558492E+00
          0                10           2             4    8     1       0.5084803160E-03       4    8    1         0.2884329858E-01      0.5264299417E-01
                                                   Max.-Head-Change                         Max.-Flux-Residual
  Residual-Control   Outer-Iter.   Inner-Iter.     Column Row Layer    Maximum-Head-Change  Column Row Layer    Maximum-Flux-Residual          L2-NORM 
          0                11           2             4    8     1       0.2302131676E-03       4    8    1         0.1306038827E-01      0.2369615899E-01
          0                12           2             4    8     1       0.1042125587E-03       4    8    1         0.5912859792E-02      0.1066674915E-01
          0                13           1             4    8     1       0.4716796544E-04       4    8    1         0.2676537112E-02      0.4801768303E-02

    ------------------------------------------------
       NWT REQUIRED           13 OUTER ITERATIONS 
       AND A TOTAL OF         25 INNER ITERATIONS.
    ------------------------------------------------

 NO OUTPUT CONTROL FOR STRESS PERIOD   43   TIME STEP   14
 
 SOLVING FOR HEAD 
                                                   Max.-Head-Change                         Max.-Flux-Residual
  Residual-Control   Outer-Iter.   Inner-Iter.     Column Row Layer    Maximum-Head-Change  Column Row Layer    Maximum-Flux-Residual          L2-NORM 
          0                 1           2             5    7     1       0.2778103879E+00       5    7    1         0.1494355210E+02      0.2703655686E+02
          0                 2           2             5    7     1       0.1149990362E+00       5    7    1         0.6239278488E+01      0.1058126743E+02
          0                 3           2             4    7     1      -0.6751557603E-01       4    6    1        -0.3703779804E+01      0.6391501269E+01
          0                 4           2             4    7     1       0.7215175090E-01       4    6    1         0.4004328732E+01      0.8285312436E+01
          0                 5           2             5    7     1       0.2574156745E-01       5    7    1         0.1465656596E+01      0.2750321693E+01
          0                 6           2             5    7     1       0.1155040792E-01       5    7    1         0.6566868484E+00      0.1219679408E+01
          0                 7           2             5    7     1       0.5180533467E-02       5    7    1         0.2946487308E+00      0.5436998993E+00
          0                 8           2             5    7     1       0.2322635367E-02       5    7    1         0.1321472231E+00      0.2423944989E+00
          0                 9           2             5    7     1       0.1040951138E-02       5    7    1         0.5924363370E-01      0.1080772731E+00
          0                10           2             5    7     1       0.4663743072E-03       5    7    1         0.2655028103E-01      0.4819333991E-01
                                                   Max.-Head-Change                         Max.-Flux-Residual
  Residual-Control   Outer-Iter.   Inner-Iter.     Column Row Layer    Maximum-Head-Change  Column Row Layer    Maximum-Flux-Residual          L2-NORM 
          0                11           2             5    7     1       0.2088839168E-03       5    7    1         0.1189467267E-01      0.2149187729E-01
          0                12           1             5    7     1       0.9353032340E-04       5    7    1         0.5327247642E-02      0.9584972130E-02

    ------------------------------------------------
       NWT REQUIRED           12 OUTER ITERATIONS 
       AND A TOTAL OF         23 INNER ITERATIONS.
    ------------------------------------------------

 NO OUTPUT CONTROL FOR STRESS PERIOD   43   TIME STEP   15
 
 SOLVING FOR HEAD 
                                                   Max.-Head-Change                         Max.-Flux-Residual
  Residual-Control   Outer-Iter.   Inner-Iter.     Column Row Layer    Maximum-Head-Change  Column Row Layer    Maximum-Flux-Residual          L2-NORM 
          0                 1           2             5    7     1       0.2407590512E+00       5    7    1         0.1291893456E+02      0.2416771510E+02
          0                 2           2             5    7     1       0.9905206412E-01       5    7    1         0.5336002925E+01      0.9256893215E+01
          0                 3           2             4    6     1      -0.6725399579E-01       4    6    1        -0.3701946450E+01      0.6305335038E+01
          0                 4           2             4    6     1       0.7089043607E-01       4    6    1         0.4004198245E+01      0.7460728301E+01
          0                 5           2             5    7     1       0.2443379960E-01       5    7    1         0.1370261434E+01      0.2837996554E+01
          0                 6           2             5    7     1       0.1098883110E-01       5    7    1         0.6165944139E+00      0.1261789926E+01
          0                 7           2             5    7     1       0.4939429596E-02       5    7    1         0.2772868140E+00      0.5628636260E+00
          0                 8           2             5    7     1       0.2219205095E-02       5    7    1         0.1246310825E+00      0.2512789089E+00
          0                 9           2             5    7     1       0.9966454285E-03       5    7    1         0.5599139848E-01      0.1122596929E+00
          0                10           2             5    7     1       0.4474359642E-03       5    7    1         0.2514438846E-01      0.5018613240E-01
                                                   Max.-Head-Change                         Max.-Flux-Residual
  Residual-Control   Outer-Iter.   Inner-Iter.     Column Row Layer    Maximum-Head-Change  Column Row Layer    Maximum-Flux-Residual          L2-NORM 
          0                11           2             5    7     1       0.2008121093E-03       5    7    1         0.1128781306E-01      0.2244990816E-01
          0                12           1             5    7     1       0.9010273375E-04       5    7    1         0.5065812755E-02      0.1004840154E-01

    ------------------------------------------------
       NWT REQUIRED           12 OUTER ITERATIONS 
       AND A TOTAL OF         23 INNER ITERATIONS.
    ------------------------------------------------

 NO OUTPUT CONTROL FOR STRESS PERIOD   43   TIME STEP   16
 
 SOLVING FOR HEAD 
                                                   Max.-Head-Change                         Max.-Flux-Residual
  Residual-Control   Outer-Iter.   Inner-Iter.     Column Row Layer    Maximum-Head-Change  Column Row Layer    Maximum-Flux-Residual          L2-NORM 
          0                 1           2             4    7     1       0.3603522884E+00       4    7    1         0.1923058366E+02      0.2792426694E+02
          0                 2           2             4    7     1       0.1502750539E+00       4    7    1         0.8058894627E+01      0.1126835005E+02
          0                 3           2             4    6     1      -0.6664843833E-01       4    6    1        -0.3698259828E+01      0.5911642263E+01
          0                 4           2             4    6     1       0.7111642866E-01       4    6    1         0.4003932806E+01      0.7764678593E+01
          0                 5           2             4    7     1       0.2880784182E-01       4    7    1         0.1622052240E+01      0.2979567397E+01
          0                 6           2             4    7     1       0.1300961673E-01       4    7    1         0.7316967893E+00      0.1317724055E+01
          0                 7           2             4    7     1       0.5872717284E-02       4    7    1         0.3304211504E+00      0.5844407164E+00
          0                 8           2             4    7     1       0.2641511560E-02       4    7    1         0.1486625270E+00      0.2590553836E+00
          0                 9           2             4    7     1       0.1183683955E-02       4    7    1         0.6662992364E-01      0.1147338587E+00
          0                10           2             4    7     1       0.5302951420E-03       4    7    1         0.2985626146E-01      0.5082928035E-01
                                                   Max.-Head-Change                         Max.-Flux-Residual
  Residual-Control   Outer-Iter.   Inner-Iter.     Column Row Layer    Maximum-Head-Change  Column Row Layer    Maximum-Flux-Residual          L2-NORM 
          0                11           2             4    7     1       0.2375192795E-03       4    7    1         0.1337519680E-01      0.2252415613E-01
          0                12           1             4    7     1       0.1063605100E-03       4    7    1         0.5990517010E-02      0.9983557040E-02
          0                13           1             4    7     1       0.4761716340E-04       4    7    1         0.2682432632E-02      0.4426039676E-02

    ------------------------------------------------
       NWT REQUIRED           13 OUTER ITERATIONS 
       AND A TOTAL OF         24 INNER ITERATIONS.
    ------------------------------------------------

 NO OUTPUT CONTROL FOR STRESS PERIOD   43   TIME STEP   17
 
 SOLVING FOR HEAD 
                                                   Max.-Head-Change                         Max.-Flux-Residual
  Residual-Control   Outer-Iter.   Inner-Iter.     Column Row Layer    Maximum-Head-Change  Column Row Layer    Maximum-Flux-Residual          L2-NORM 
          0                 1           2             4    7     1       0.3256082049E+00       4    7    1         0.1726111205E+02      0.2795155339E+02
          0                 2           2             4    7     1       0.1353193364E+00       4    7    1         0.7170564019E+01      0.1149413034E+02
          0                 3           2             5    8     1      -0.5573061341E-01       5    8    1        -0.3097869584E+01      0.5162098120E+01
          0                 4           2             4    7     1       0.6105846212E-01       4    7    1         0.3386217513E+01      0.7199779603E+01
          0                 5           2             4    7     1       0.2756973571E-01       4    7    1         0.1529842494E+01      0.3191298897E+01
          0                 6           2             4    7     1       0.1244102685E-01       4    7    1         0.6907201544E+00      0.1415805090E+01
          0                 7           2             4    7     1       0.5610882174E-02       4    7    1         0.3116702720E+00      0.6286040874E+00
          0                 8           2             4    7     1       0.2529129972E-02       4    7    1         0.1405532813E+00      0.2792921559E+00
          0                 9           2             4    7     1       0.1139434525E-02       4    7    1         0.6335089349E-01      0.1241711535E+00
          0                10           2             4    7     1       0.5130956724E-03       4    7    1         0.2853933006E-01      0.5523803238E-01
                                                   Max.-Head-Change                         Max.-Flux-Residual
  Residual-Control   Outer-Iter.   Inner-Iter.     Column Row Layer    Maximum-Head-Change  Column Row Layer    Maximum-Flux-Residual          L2-NORM 
          0                11           2             4    7     1       0.2309457601E-03       4    7    1         0.1285069353E-01      0.2458603443E-01
          0                12           1             4    7     1       0.1039048027E-03       4    7    1         0.5783796349E-02      0.1094840619E-01
          0                13           1             4    7     1       0.4672894566E-04       4    7    1         0.2602042173E-02      0.4877605002E-02

    ------------------------------------------------
       NWT REQUIRED           13 OUTER ITERATIONS 
       AND A TOTAL OF         24 INNER ITERATIONS.
    ------------------------------------------------

 NO OUTPUT CONTROL FOR STRESS PERIOD   43   TIME STEP   18
 
 SOLVING FOR HEAD 
                                                   Max.-Head-Change                         Max.-Flux-Residual
  Residual-Control   Outer-Iter.   Inner-Iter.     Column Row Layer    Maximum-Head-Change  Column Row Layer    Maximum-Flux-Residual          L2-NORM 
          0                 1           2             4    6     1       0.3087516326E+00       4    6    1         0.1651245589E+02      0.2782205996E+02
          0                 2           2             4    6     1       0.1270389049E+00       4    6    1         0.6784939058E+01      0.1132602208E+02
          0                 3           2             5    8     1      -0.5681545098E-01       5    8    1        -0.3154113904E+01      0.5370318644E+01
          0                 4           2             4    6     1       0.5917973055E-01       4    6    1         0.3321041872E+01      0.7152173329E+01
          0                 5           2             4    7     1       0.2648069708E-01       4    6    1         0.1481156018E+01      0.3137515654E+01
          0                 6           2             4    7     1       0.1185107313E-01       4    6    1         0.6604049543E+00      0.1377677124E+01
          0                 7           2             4    7     1       0.5300329285E-02       4    6    1         0.2943755356E+00      0.6054237548E+00
          0                 8           2             4    7     1       0.2369073520E-02       4    7    1         0.1315150357E+00      0.2662452434E+00
          0                 9           2             4    7     1       0.1058273565E-02       4    7    1         0.5877866581E-01      0.1171599773E+00
          0                10           2             4    7     1       0.4724695754E-03       4    7    1         0.2625480674E-01      0.5158466383E-01
                                                   Max.-Head-Change                         Max.-Flux-Residual
  Residual-Control   Outer-Iter.   Inner-Iter.     Column Row Layer    Maximum-Head-Change  Column Row Layer    Maximum-Flux-Residual          L2-NORM 
          0                11           2             4    7     1       0.2108232654E-03       4    7    1         0.1172075144E-01      0.2272366905E-01
          0                12           1             4    7     1       0.9402510548E-04       4    7    1         0.5229641070E-02      0.1001448762E-01

    ------------------------------------------------
       NWT REQUIRED           12 OUTER ITERATIONS 
       AND A TOTAL OF         23 INNER ITERATIONS.
    ------------------------------------------------

 NO OUTPUT CONTROL FOR STRESS PERIOD   43   TIME STEP   19
 
 SOLVING FOR HEAD 
                                                   Max.-Head-Change                         Max.-Flux-Residual
  Residual-Control   Outer-Iter.   Inner-Iter.     Column Row Layer    Maximum-Head-Change  Column Row Layer    Maximum-Flux-Residual          L2-NORM 
          0                 1           2             4    6     1       0.2792311610E+00       4    6    1         0.1492119157E+02      0.2540603027E+02
          0                 2           2             4    6     1       0.1136883245E+00       4    6    1         0.6070410425E+01      0.1021785958E+02
          0                 3           2             5    8     1      -0.5818170705E-01       5    8    1        -0.3226602923E+01      0.5732530784E+01
          0                 4           2             4    7     1       0.5718430453E-01       4    6    1         0.3190063373E+01      0.6965857041E+01
          0                 5           2             4    7     1       0.2533371112E-01       4    6    1         0.1409677672E+01      0.3029329764E+01
          0                 6           2             4    7     1       0.1121682997E-01       4    6    1         0.6227094453E+00      0.1318387325E+01
          0                 7           2             4    7     1       0.4963640534E-02       4    7    1         0.2752706913E+00      0.5741326908E+00
          0                 8           2             4    7     1       0.2195325473E-02       4    7    1         0.1218038215E+00      0.2501642068E+00
          0                 9           2             4    7     1       0.9704550185E-03       4    7    1         0.5386801977E-01      0.1090575439E+00
          0                10           2             4    7     1       0.4287845927E-03       4    7    1         0.2381111726E-01      0.4756426920E-01
                                                   Max.-Head-Change                         Max.-Flux-Residual
  Residual-Control   Outer-Iter.   Inner-Iter.     Column Row Layer    Maximum-Head-Change  Column Row Layer    Maximum-Flux-Residual          L2-NORM 
          0                11           2             4    7     1       0.1893648610E-03       4    7    1         0.1052002016E-01      0.2075295906E-01
          0                12           1             4    7     1       0.8359206492E-04       4    7    1         0.4645693877E-02      0.9058058353E-02

    ------------------------------------------------
       NWT REQUIRED           12 OUTER ITERATIONS 
       AND A TOTAL OF         23 INNER ITERATIONS.
    ------------------------------------------------

 NO OUTPUT CONTROL FOR STRESS PERIOD   43   TIME STEP   20
 
 SOLVING FOR HEAD 
                                                   Max.-Head-Change                         Max.-Flux-Residual
  Residual-Control   Outer-Iter.   Inner-Iter.     Column Row Layer    Maximum-Head-Change  Column Row Layer    Maximum-Flux-Residual          L2-NORM 
          0                 1           2             4    7     1       0.2583751687E+00       4    7    1         0.1366894832E+02      0.2334443806E+02
          0                 2           2             4    7     1       0.1036110356E+00       4    7    1         0.5480064542E+01      0.9248987589E+01
          0                 3           2             5    8     1      -0.5907621867E-01       5    8    1        -0.3272389897E+01      0.6064533376E+01
          0                 4           2             4    7     1       0.5554120966E-01       4    6    1         0.3079531355E+01      0.6819008967E+01
          0                 5           2             4    7     1       0.2430061237E-01       4    6    1         0.1346264799E+01      0.2930163771E+01
          0                 6           2             4    7     1       0.1062578019E-01       4    7    1         0.5889050537E+00      0.1260198706E+01
          0                 7           2             4    7     1       0.4643636065E-02       4    7    1         0.2574885751E+00      0.5423792749E+00
          0                 8           2             4    7     1       0.2028246706E-02       4    7    1         0.1125188554E+00      0.2335613598E+00
          0                 9           2             4    7     1       0.8854416961E-03       4    7    1         0.4914267874E-01      0.1006375499E+00
          0                10           2             4    7     1       0.3863552094E-03       4    7    1         0.2145210262E-01      0.4338550617E-01
                                                   Max.-Head-Change                         Max.-Flux-Residual
  Residual-Control   Outer-Iter.   Inner-Iter.     Column Row Layer    Maximum-Head-Change  Column Row Layer    Maximum-Flux-Residual          L2-NORM 
          0                11           2             4    7     1       0.1685046371E-03       4    7    1         0.9359861831E-02      0.1871242361E-01
          0                12           1             4    7     1       0.7345908285E-04       4    7    1         0.4081954710E-02      0.8074089967E-02

    ------------------------------------------------
       NWT REQUIRED           12 OUTER ITERATIONS 
       AND A TOTAL OF         23 INNER ITERATIONS.
    ------------------------------------------------

 NO OUTPUT CONTROL FOR STRESS PERIOD   43   TIME STEP   21
 
 SOLVING FOR HEAD 
                                                   Max.-Head-Change                         Max.-Flux-Residual
  Residual-Control   Outer-Iter.   Inner-Iter.     Column Row Layer    Maximum-Head-Change  Column Row Layer    Maximum-Flux-Residual          L2-NORM 
          0                 1           2             4    7     1       0.2395956126E+00       4    7    1         0.1267540679E+02      0.2157263648E+02
          0                 2           2             4    7     1       0.9606100291E-01       4    7    1         0.5081762654E+01      0.8498351748E+01
          0                 3           2             5    8     1      -0.5999832546E-01       5    8    1        -0.3325169325E+01      0.6327886463E+01
          0                 4           2             4    7     1       0.5433839573E-01       4    7    1         0.3007691865E+01      0.6709433477E+01
          0                 5           2             4    7     1       0.2377148766E-01       4    7    1         0.1316968779E+01      0.2860889914E+01
          0                 6           2             4    7     1       0.1038940391E-01       4    7    1         0.5760745656E+00      0.1221184403E+01
          0                 7           2             4    7     1       0.4536645132E-02       4    7    1         0.2517495485E+00      0.5216620240E+00
          0                 8           2             4    7     1       0.1979303348E-02       4    7    1         0.1099184583E+00      0.2229952863E+00
          0                 9           2             4    7     1       0.8628695713E-03       4    7    1         0.4795212382E-01      0.9538308349E-01
          0                10           2             4    7     1       0.3758837906E-03       4    7    1         0.2090268715E-01      0.4082159129E-01
                                                   Max.-Head-Change                         Max.-Flux-Residual
  Residual-Control   Outer-Iter.   Inner-Iter.     Column Row Layer    Maximum-Head-Change  Column Row Layer    Maximum-Flux-Residual          L2-NORM 
          0                11           2             4    7     1       0.1636276661E-03       4    7    1         0.9104869857E-02      0.1747944036E-01
          0                12           1             4    7     1       0.7118235644E-04       4    7    1         0.3963160432E-02      0.7487942849E-02

    ------------------------------------------------
       NWT REQUIRED           12 OUTER ITERATIONS 
       AND A TOTAL OF         23 INNER ITERATIONS.
    ------------------------------------------------

 NO OUTPUT CONTROL FOR STRESS PERIOD   43   TIME STEP   22
 
 SOLVING FOR HEAD 
                                                   Max.-Head-Change                         Max.-Flux-Residual
  Residual-Control   Outer-Iter.   Inner-Iter.     Column Row Layer    Maximum-Head-Change  Column Row Layer    Maximum-Flux-Residual          L2-NORM 
          0                 1           2             4    7     1       0.2186532784E+00       4    7    1         0.1157544583E+02      0.1963878262E+02
          0                 2           2             4    7     1       0.8618394012E-01       4    7    1         0.4561776320E+01      0.7606870433E+01
          0                 3           2             5    8     1      -0.6039173640E-01       5    8    1        -0.3343314058E+01      0.6608816795E+01
          0                 4           2             4    7     1       0.5277196850E-01       4    7    1         0.2920288237E+01      0.6589152649E+01
          0                 5           2             4    7     1       0.2277260255E-01       4    7    1         0.1260928722E+01      0.2786331267E+01
          0                 6           2             4    7     1       0.9820729540E-02       4    7    1         0.5440839609E+00      0.1179579750E+01
          0                 7           2             4    7     1       0.4232624558E-02       4    7    1         0.2346194138E+00      0.4998472131E+00
          0                 8           2             4    7     1       0.1823155215E-02       4    7    1         0.1011108874E+00      0.2119890515E+00
          0                 9           2             4    7     1       0.7848707259E-03       4    7    1         0.4354926858E-01      0.8997308975E-01
          0                10           2             4    7     1       0.3377112576E-03       4    6    1         0.1874932928E-01      0.3821177676E-01
                                                   Max.-Head-Change                         Max.-Flux-Residual
  Residual-Control   Outer-Iter.   Inner-Iter.     Column Row Layer    Maximum-Head-Change  Column Row Layer    Maximum-Flux-Residual          L2-NORM 
          0                11           2             4    7     1       0.1452371741E-03       4    6    1         0.8083234150E-02      0.1623806840E-01
          0                12           1             4    7     1       0.6243187511E-04       4    6    1         0.3483855842E-02      0.6903913851E-02

    ------------------------------------------------
       NWT REQUIRED           12 OUTER ITERATIONS 
       AND A TOTAL OF         23 INNER ITERATIONS.
    ------------------------------------------------

 NO OUTPUT CONTROL FOR STRESS PERIOD   43   TIME STEP   23
 
 SOLVING FOR HEAD 
                                                   Max.-Head-Change                         Max.-Flux-Residual
  Residual-Control   Outer-Iter.   Inner-Iter.     Column Row Layer    Maximum-Head-Change  Column Row Layer    Maximum-Flux-Residual          L2-NORM 
          0                 1           2             4    7     1       0.2096585740E+00       4    7    1         0.1110303158E+02      0.1850311473E+02
          0                 2           2             4    7     1       0.8111250739E-01       4    7    1         0.4294623570E+01      0.7029136037E+01
          0                 3           2             5    8     1      -0.6172346560E-01       5    8    1        -0.3417493294E+01      0.6855439429E+01
          0                 4           2             4    7     1       0.5203070490E-01       4    7    1         0.2878940630E+01      0.6508616992E+01
          0                 5           2             4    7     1       0.2210530412E-01       4    7    1         0.1223595583E+01      0.2720823769E+01
          0                 6           2             4    7     1       0.9387325570E-02       4    7    1         0.5198146752E+00      0.1138319015E+01
          0                 7           2             4    7     1       0.3984749819E-02       4    7    1         0.2207333489E+00      0.4765664813E+00
          0                 8           2             4    7     1       0.1690751136E-02       4    7    1         0.9369178923E-01      0.1996399202E+00
          0                 9           2             4    7     1       0.7171066473E-03       4    7    1         0.3975163673E-01      0.8367728265E-01
          0                10           2             4    7     1       0.3040321003E-03       4    6    1         0.1686802026E-01      0.3508965813E-01
                                                   Max.-Head-Change                         Max.-Flux-Residual
  Residual-Control   Outer-Iter.   Inner-Iter.     Column Row Layer    Maximum-Head-Change  Column Row Layer    Maximum-Flux-Residual          L2-NORM 
          0                11           2             4    7     1       0.1288525709E-03       4    6    1         0.7169155291E-02      0.1472109176E-01
          0                12           1             4    7     1       0.5458974721E-04       4    6    1         0.3046105143E-02      0.6178323505E-02

    ------------------------------------------------
       NWT REQUIRED           12 OUTER ITERATIONS 
       AND A TOTAL OF         23 INNER ITERATIONS.
    ------------------------------------------------

 NO OUTPUT CONTROL FOR STRESS PERIOD   43   TIME STEP   24
 
 SOLVING FOR HEAD 
                                                   Max.-Head-Change                         Max.-Flux-Residual
  Residual-Control   Outer-Iter.   Inner-Iter.     Column Row Layer    Maximum-Head-Change  Column Row Layer    Maximum-Flux-Residual          L2-NORM 
          0                 1           2             4    7     1       0.1885527994E+00       4    7    1         0.9987033123E+01      0.1688661673E+02
          0                 2           2             4    7     1       0.7291917102E-01       4    7    1         0.3862129535E+01      0.6365684357E+01
          0                 3           2             5    8     1      -0.6166044206E-01       5    8    1        -0.3410092427E+01      0.7056731093E+01
          0                 4           2             4    7     1       0.5081586490E-01       4    7    1         0.2810868994E+01      0.6422563326E+01
          0                 5           2             4    7     1       0.2159093426E-01       4    7    1         0.1195061456E+01      0.2676458392E+01
          0                 6           2             4    7     1       0.9167364694E-02       4    7    1         0.5077216296E+00      0.1115975210E+01
          0                 7           2             4    7     1       0.3889876565E-02       4    7    1         0.2155576316E+00      0.4656547693E+00
          0                 8           2             4    7     1       0.1649535840E-02       4    6    1         0.9147884824E-01      0.1944284485E+00
          0                 9           2             4    7     1       0.6990975776E-03       4    6    1         0.3890406999E-01      0.8123066930E-01
          0                10           2             4    7     1       0.2961273780E-03       4    6    1         0.1653881998E-01      0.3395644690E-01
                                                   Max.-Head-Change                         Max.-Flux-Residual
  Residual-Control   Outer-Iter.   Inner-Iter.     Column Row Layer    Maximum-Head-Change  Column Row Layer    Maximum-Flux-Residual          L2-NORM 
          0                11           2             4    7     1       0.1253712173E-03       4    6    1         0.7028385114E-02      0.1420188758E-01
          0                12           1             4    6     1       0.5315233192E-04       4    6    1         0.2985755079E-02      0.5942549779E-02

    ------------------------------------------------
       NWT REQUIRED           12 OUTER ITERATIONS 
       AND A TOTAL OF         23 INNER ITERATIONS.
    ------------------------------------------------

 NO OUTPUT CONTROL FOR STRESS PERIOD   43   TIME STEP   25
 
 SOLVING FOR HEAD 
                                                   Max.-Head-Change                         Max.-Flux-Residual
  Residual-Control   Outer-Iter.   Inner-Iter.     Column Row Layer    Maximum-Head-Change  Column Row Layer    Maximum-Flux-Residual          L2-NORM 
          0                 1           2             4    7     1       0.1820002618E+00       4    7    1         0.9646343073E+01      0.1599583927E+02
          0                 2           2             4    7     1       0.7030325228E-01       4    7    1         0.3727275069E+01      0.5951220057E+01
          0                 3           2             5    8     1      -0.6224977704E-01       5    8    1        -0.3442663940E+01      0.7221463726E+01
          0                 4           2             4    7     1       0.5046813146E-01       4    7    1         0.2791974274E+01      0.6383262227E+01
          0                 5           2             4    7     1       0.2128193728E-01       4    7    1         0.1178054147E+01      0.2630920984E+01
          0                 6           2             4    7     1       0.8880866411E-02       4    7    1         0.4916915110E+00      0.1083239105E+01
          0                 7           2             4    7     1       0.3705045254E-02       4    7    1         0.2051721886E+00      0.4463483547E+00
          0                 8           2             4    7     1       0.1545333408E-02       4    7    1         0.8559290044E-01      0.1840397617E+00
          0                 9           2             4    7     1       0.6443757882E-03       4    7    1         0.3569826847E-01      0.7592743801E-01
          0                10           2             4    7     1       0.2686232182E-03       4    7    1         0.1488485815E-01      0.3134021713E-01
                                                   Max.-Head-Change                         Max.-Flux-Residual
  Residual-Control   Outer-Iter.   Inner-Iter.     Column Row Layer    Maximum-Head-Change  Column Row Layer    Maximum-Flux-Residual          L2-NORM 
          0                11           2             4    7     1       0.1119528351E-03       4    7    1         0.6204823990E-02      0.1294175035E-01
          0                12           1             4    7     1       0.4664601288E-04       4    6    1         0.2588752260E-02      0.5346228144E-02

    ------------------------------------------------
       NWT REQUIRED           12 OUTER ITERATIONS 
       AND A TOTAL OF         23 INNER ITERATIONS.
    ------------------------------------------------

 NO OUTPUT CONTROL FOR STRESS PERIOD   43   TIME STEP   26
 
 SOLVING FOR HEAD 
                                                   Max.-Head-Change                         Max.-Flux-Residual
  Residual-Control   Outer-Iter.   Inner-Iter.     Column Row Layer    Maximum-Head-Change  Column Row Layer    Maximum-Flux-Residual          L2-NORM 
          0                 1           2             4    7     1       0.1616381769E+00       4    7    1         0.8558126974E+01      0.1462682417E+02
          0                 2           2             4    7     1       0.6126807441E-01       4    7    1         0.3244631405E+01      0.5328451023E+01
          0                 3           2             5    8     1      -0.6321152707E-01       5    8    1        -0.3494507809E+01      0.7440129499E+01
          0                 4           2             4    7     1       0.4927066120E-01       4    7    1         0.2723992504E+01      0.6313159635E+01
          0                 5           2             4    7     1       0.2057771038E-01       4    7    1         0.1138498914E+01      0.2580003862E+01
          0                 6           2             4    7     1       0.8587522993E-02       4    7    1         0.4754447406E+00      0.1055437582E+01
          0                 7           2             4    7     1       0.3581153235E-02       4    7    1         0.1983953943E+00      0.4321440370E+00
          0                 8           2             4    7     1       0.1492390605E-02       4    6    1         0.8302681800E-01      0.1770832013E+00
          0                 9           2             4    7     1       0.6215353831E-03       4    6    1         0.3475378405E-01      0.7261900031E-01
          0                10           2             4    6     1       0.2590000355E-03       4    6    1         0.1454101955E-01      0.2980029865E-01
                                                   Max.-Head-Change                         Max.-Flux-Residual
  Residual-Control   Outer-Iter.   Inner-Iter.     Column Row Layer    Maximum-Head-Change  Column Row Layer    Maximum-Flux-Residual          L2-NORM 
          0                11           2             4    6     1       0.1082824476E-03       4    6    1         0.6081408826E-02      0.1223668701E-01
          0                12           1             4    6     1       0.4525292954E-04       4    6    1         0.2542361191E-02      0.5027560844E-02

    ------------------------------------------------
       NWT REQUIRED           12 OUTER ITERATIONS 
       AND A TOTAL OF         23 INNER ITERATIONS.
    ------------------------------------------------

 NO OUTPUT CONTROL FOR STRESS PERIOD   43   TIME STEP   27
 
 SOLVING FOR HEAD 
                                                   Max.-Head-Change                         Max.-Flux-Residual
  Residual-Control   Outer-Iter.   Inner-Iter.     Column Row Layer    Maximum-Head-Change  Column Row Layer    Maximum-Flux-Residual          L2-NORM 
          0                 1           2             4    7     1       0.1560367460E+00       4    7    1         0.8273950590E+01      0.1394671810E+02
          0                 2           2             4    7     1       0.5902263659E-01       4    7    1         0.3130951950E+01      0.5017300517E+01
          0                 3           2             5    8     1      -0.6313693779E-01       5    8    1        -0.3488100301E+01      0.7555893780E+01
          0                 4           2             4    7     1       0.4892261536E-01       4    7    1         0.2704996307E+01      0.6282250201E+01
          0                 5           2             4    7     1       0.2042567721E-01       4    7    1         0.1130446538E+01      0.2551238116E+01
          0                 6           2             4    7     1       0.8519245161E-02       4    7    1         0.4719173332E+00      0.1036741243E+01
          0                 7           2             4    7     1       0.3549846238E-02       4    7    1         0.1968076412E+00      0.4216164024E+00
          0                 8           2             4    7     1       0.1477835006E-02       4    7    1         0.8199812932E-01      0.1715791283E+00
          0                 9           2             4    7     1       0.6147138025E-03       4    7    1         0.3413312011E-01      0.6986912216E-01
          0                10           2             4    7     1       0.2554887281E-03       4    7    1         0.1419647747E-01      0.2846794198E-01
                                                   Max.-Head-Change                         Max.-Flux-Residual
  Residual-Control   Outer-Iter.   Inner-Iter.     Column Row Layer    Maximum-Head-Change  Column Row Layer    Maximum-Flux-Residual          L2-NORM 
          0                11           1             4    7     1       0.1061065232E-03       4    7    1         0.5899820666E-02      0.1160525797E-01
          0                12           1             4    7     1       0.4403545659E-04       4    7    1         0.2450023848E-02      0.4733269445E-02

    ------------------------------------------------
       NWT REQUIRED           12 OUTER ITERATIONS 
       AND A TOTAL OF         22 INNER ITERATIONS.
    ------------------------------------------------

 NO OUTPUT CONTROL FOR STRESS PERIOD   43   TIME STEP   28
 
 SOLVING FOR HEAD 
                                                   Max.-Head-Change                         Max.-Flux-Residual
  Residual-Control   Outer-Iter.   Inner-Iter.     Column Row Layer    Maximum-Head-Change  Column Row Layer    Maximum-Flux-Residual          L2-NORM 
          0                 1           2             4    7     1       0.1458910885E+00       4    7    1         0.7736884913E+01      0.1291779742E+02
          0                 2           2             4    7     1       0.5377478952E-01       4    7    1         0.2855146599E+01      0.4549989471E+01
          0                 3           2             5    8     1      -0.6302554263E-01       5    8    1        -0.3481381720E+01      0.7703352578E+01
          0                 4           2             4    7     1       0.4839019250E-01       4    7    1         0.2677176495E+01      0.6228106160E+01
          0                 5           2             4    7     1       0.1981498874E-01       4    7    1         0.1096494921E+01      0.2518069858E+01
          0                 6           2             4    7     1       0.8111862552E-02       4    7    1         0.4489767881E+00      0.1018710994E+01
          0                 7           2             4    7     1       0.3319981937E-02       4    7    1         0.1837939785E+00      0.4123197388E+00
          0                 8           2             4    7     1       0.1358432030E-02       4    7    1         0.7521885234E-01      0.1669543053E+00
          0                 9           2             4    7     1       0.5556825370E-03       4    6    1         0.3089831117E-01      0.6762744187E-01
          0                10           2             4    7     1       0.2272493098E-03       4    6    1         0.1269676631E-01      0.2740272639E-01
          0                11           1             4    7     1       0.9291083370E-04       4    6    1         0.5215171318E-02      0.1110696715E-01

    ------------------------------------------------
       NWT REQUIRED           11 OUTER ITERATIONS 
       AND A TOTAL OF         21 INNER ITERATIONS.
    ------------------------------------------------

 NO OUTPUT CONTROL FOR STRESS PERIOD   43   TIME STEP   29
 
 SOLVING FOR HEAD 
                                                   Max.-Head-Change                         Max.-Flux-Residual
  Residual-Control   Outer-Iter.   Inner-Iter.     Column Row Layer    Maximum-Head-Change  Column Row Layer    Maximum-Flux-Residual          L2-NORM 
          0                 1           2             4    7     1       0.1314051965E+00       4    7    1         0.6967109922E+01      0.1214381876E+02
          0                 2           2             4    7     1       0.4860755243E-01       4    7    1         0.2578163543E+01      0.4221550844E+01
          0                 3           2             5    8     1      -0.6431559638E-01       5    8    1        -0.3552827476E+01      0.7835218282E+01
          0                 4           2             4    7     1       0.4771492739E-01       4    7    1         0.2638371792E+01      0.6209362835E+01
          0                 5           2             4    7     1       0.1953958115E-01       4    7    1         0.1081253116E+01      0.2486107850E+01
          0                 6           2             4    7     1       0.7994621326E-02       4    7    1         0.4427365567E+00      0.9955657663E+00
          0                 7           2             4    7     1       0.3268327753E-02       4    6    1         0.1817459425E+00      0.3990907132E+00
          0                 8           2             4    7     1       0.1335128315E-02       4    6    1         0.7473636779E-01      0.1601358217E+00
          0                 9           2             4    6     1       0.5469599104E-03       4    6    1         0.3071609633E-01      0.6431116710E-01
          0                10           2             4    6     1       0.2245855340E-03       4    6    1         0.1261760527E-01      0.2584840183E-01
          0                11           1             4    6     1       0.9217289125E-04       4    6    1         0.5180530564E-02      0.1039687136E-01

    ------------------------------------------------
       NWT REQUIRED           11 OUTER ITERATIONS 
       AND A TOTAL OF         21 INNER ITERATIONS.
    ------------------------------------------------

 NO OUTPUT CONTROL FOR STRESS PERIOD   43   TIME STEP   30



 STREAM LISTING     PERIOD     43   STEP       30

 LAYER ROW COL. STREAM  RCH.  FLOW INTO     FLOW TO   FLOW OUT OF   OVRLND.     DIRECT     STREAM       STREAM     STREAM     STREAM   STREAMBED  STREAMBED
                SEG.NO.  NO.  STRM. RCH.    AQUIFER    STRM. RCH.    RUNOFF     PRECIP       ET          HEAD       DEPTH      WIDTH   CONDCTNC.   GRADIENT

   1    1    1     1     1    4.3499E+01  3.1564E-01   4.3183E+01  0.000E+00  0.000E+00  0.000E+00  1.09440E+03  1.356E+00  1.610E+01  7.246E-02  1.452E+00
   1    2    2     1     2    4.3183E+01  4.8894E-01   4.2694E+01  0.000E+00  0.000E+00  0.000E+00  1.08941E+03  1.354E+00  1.604E+01  1.123E-01  1.451E+00
   1    3    3     1     3    4.2694E+01  4.1710E-01   4.2277E+01  0.000E+00  0.000E+00  0.000E+00  1.08377E+03  1.350E+00  1.598E+01  9.588E-02  1.450E+00
   1    3    4     1     4    4.2277E+01  3.8418E-01   4.1893E+01  0.000E+00  0.000E+00  0.000E+00  1.07876E+03  1.347E+00  1.592E+01  8.837E-02  1.449E+00
   1    4    5     2     1    3.9893E+01  3.5834E-01   3.9534E+01  0.000E+00  0.000E+00  0.000E+00  1.07353E+03  1.594E+00  1.200E+01  7.800E-02  1.531E+00
   1    5    6     2     2    3.9534E+01  2.7519E-01   3.9259E+01  0.000E+00  0.000E+00  0.000E+00  1.06810E+03  1.586E+00  1.200E+01  6.000E-02  1.529E+00
   1    6    6     2     3    3.9259E+01  2.7479E-01   3.8985E+01  0.000E+00  0.000E+00  0.000E+00  1.06337E+03  1.580E+00  1.200E+01  6.000E-02  1.527E+00
   1    7    6     2     4    3.8985E+01  2.7439E-01   3.8710E+01  0.000E+00  0.000E+00  0.000E+00  1.05865E+03  1.573E+00  1.200E+01  6.000E-02  1.524E+00
   1    8    6     2     5    3.8710E+01  2.7399E-01   3.8436E+01  0.000E+00  0.000E+00  0.000E+00  1.05392E+03  1.566E+00  1.200E+01  6.000E-02  1.522E+00
   1    3    5     3     1    2.0000E+00  2.8252E-01   1.7175E+00  0.000E+00  0.000E+00  0.000E+00  1.07555E+03  1.909E+00  9.636E+00  7.227E-02  1.955E+00
   1    3    6     3     2    1.7175E+00  2.4905E-01   1.4684E+00  0.000E+00  0.000E+00  0.000E+00  1.07264E+03  1.727E+00  8.909E+00  6.682E-02  1.864E+00
   1    3    7     3     3    1.4684E+00  1.9718E-01   1.2712E+00  0.000E+00  0.000E+00  0.000E+00  1.06987E+03  1.555E+00  8.218E+00  5.547E-02  1.777E+00
   1    4    8     3     4    1.2712E+00  2.2567E-01   1.0456E+00  0.000E+00  0.000E+00  0.000E+00  1.06682E+03  1.364E+00  7.455E+00  6.709E-02  1.682E+00
   1    5    8     3     5    1.0456E+00  1.5790E-01   8.8768E-01  0.000E+00  0.000E+00  0.000E+00  1.06362E+03  1.164E+00  6.655E+00  4.991E-02  1.582E+00
   1    6    8     3     6    8.8768E-01  5.5980E-02   8.3170E-01  0.000E+00  0.000E+00  0.000E+00  1.06158E+03  1.036E+00  6.145E+00  1.844E-02  1.518E+00
   1    5   10     4     1    1.0000E+01  9.0919E-02   9.9091E+00  0.000E+00  0.000E+00  0.000E+00  1.07836E+03  6.368E-01  1.000E+01  2.500E-02  1.212E+00
   1    5    9     4     2    9.9091E+00  1.8158E-01   9.7275E+00  0.000E+00  0.000E+00  0.000E+00  1.07154E+03  6.315E-01  1.000E+01  5.000E-02  1.211E+00
   1    6    8     4     3    9.7275E+00  1.2689E-01   9.6006E+00  0.000E+00  0.000E+00  0.000E+00  1.06381E+03  6.256E-01  1.000E+01  3.500E-02  1.209E+00
   1    6    8     5     1    1.0432E+01  2.2686E-01   1.0205E+01  0.000E+00  0.000E+00  0.000E+00  1.05868E+03  6.790E-01  1.542E+01  6.166E-02  1.226E+00
   1    7    7     5     2    1.0205E+01  2.7894E-01   9.9265E+00  0.000E+00  0.000E+00  0.000E+00  1.05417E+03  6.732E-01  1.519E+01  7.594E-02  1.224E+00
   1    8    7     5     3    9.9265E+00  1.9221E-01   9.7343E+00  0.000E+00  0.000E+00  0.000E+00  1.04992E+03  6.676E-01  1.497E+01  5.241E-02  1.223E+00
   1    8    6     5     4    9.7343E+00  1.3577E-01   9.5985E+00  0.000E+00  0.000E+00  0.000E+00  1.04691E+03  6.637E-01  1.482E+01  3.706E-02  1.221E+00
   1    9    6     6     1    2.5565E+01  2.5403E-01   2.5311E+01  0.000E+00  0.000E+00  0.000E+00  1.04396E+03  1.234E+00  1.200E+01  6.000E-02  1.411E+00
   1   10    7     6     2    2.5311E+01  2.5359E-01   2.5057E+01  0.000E+00  0.000E+00  0.000E+00  1.03941E+03  1.226E+00  1.200E+01  6.000E-02  1.409E+00
   1   11    7     6     3    2.5057E+01  2.5314E-01   2.4804E+01  0.000E+00  0.000E+00  0.000E+00  1.03486E+03  1.219E+00  1.200E+01  6.000E-02  1.406E+00
   1   12    7     6     4    2.4804E+01  2.5269E-01   2.4551E+01  0.000E+00  0.000E+00  0.000E+00  1.03030E+03  1.212E+00  1.200E+01  6.000E-02  1.404E+00
   1   13    7     6     5    2.4551E+01 -8.3734E-03   2.4560E+01  0.000E+00  0.000E+00  0.000E+00  1.02712E+03  1.208E+00  1.200E+01  2.400E-01 -1.163E-02
   1   14    9     7     1    1.5000E+02  1.3458E+00   1.4865E+02  0.000E+00  0.000E+00  0.000E+00  1.03987E+03  2.288E+00  5.529E+01  5.593E-01  8.021E-01
   1   13    8     7     2    1.4865E+02  1.8286E+00   1.4683E+02  0.000E+00  0.000E+00  0.000E+00  1.03478E+03  2.279E+00  5.526E+01  6.148E-01  9.915E-01
   1   13    7     7     3    1.4683E+02  1.4174E+00   1.4541E+02  0.000E+00  0.000E+00  0.000E+00  1.02969E+03  2.271E+00  5.522E+01  5.585E-01  8.460E-01
   1   13    6     8     1    1.6997E+02  8.4955E-01   1.6912E+02  0.000E+00  0.000E+00  0.000E+00  1.02482E+03  2.949E+00  4.276E+01  4.358E-01  6.498E-01
   1   13    5     8     2    1.6912E+02  9.6119E-02   1.6902E+02  0.000E+00  0.000E+00  0.000E+00  1.01857E+03  2.946E+00  4.272E+01  4.353E-01  7.360E-02
   1   13    4     8     3    1.6902E+02 -2.7243E+00   1.7175E+02  0.000E+00  0.000E+00  0.000E+00  1.01233E+03  2.955E+00  4.284E+01  4.366E+00 -2.080E-01
   1   13    3     8     4    1.7175E+02 -3.7635E+00   1.7551E+02  0.000E+00  0.000E+00  0.000E+00  1.00610E+03  2.976E+00  4.315E+01  4.397E+00 -2.853E-01
   1   13    2     8     5    1.7551E+02 -2.5757E+00   1.7809E+02  0.000E+00  0.000E+00  0.000E+00  9.99871E+02  2.996E+00  4.344E+01  4.427E+00 -1.939E-01
   1   13    1     8     6    1.7809E+02 -1.9693E+00   1.8005E+02  0.000E+00  0.000E+00  0.000E+00  9.94885E+02  3.010E+00  4.365E+01  2.669E+00 -2.460E-01
   1    8    6     9     1    2.2470E+01  0.0000E+00   2.2470E+01  0.000E+00  0.000E+00  0.000E+00  1.08243E+03  3.683E+00  4.000E+00  0.000E+00  2.228E+00
   1    8    5     9     2    2.2470E+01  0.0000E+00   2.2470E+01  0.000E+00  0.000E+00  0.000E+00  1.08193E+03  3.683E+00  4.000E+00  0.000E+00  2.228E+00





UNSATURATED ZONE PACKAGE VOLUMETRIC BUDGET FOR  TIME STEP    30 STRESS PERIOD   43
  ------------------------------------------------------------------------------



     CUMULATIVE VOLUMES      L**3       RATES FOR THIS TIME STEP      L**3/T
     ------------------                 ------------------------

           IN:                                      IN:
           ---                                      ---
        INFILTRATION =  4750646949.5002          INFILTRATION =          23.3179

          OUT:                                     OUT:
          ----                                     ----
              UZF ET =  1384404673.4213                UZF ET =          23.3175
        UZF RECHARGE =  2873244217.7932          UZF RECHARGE =          48.5612

            IN - OUT =   492998058.2857              IN - OUT =         -48.5608

          STORAGE:                                 STORAGE:
          --------                                 --------
      STORAGE CHANGE =   492980168.4196        STORAGE CHANGE =         -48.5608

 PERCENT DISCREPANCY IS DIFFERENCE BETWEEN IN-OUT MINUS CHANGE IN STORAGE
 DIVIDED BY THE AVERAGE OF IN AND OUT TIMES 100

 PERCENT DISCREPANCY =           0.00     PERCENT DISCREPANCY =           0.00






1
  VOLUMETRIC BUDGET FOR AGRICULTURAL FIELDS AT  END OF TIME STEP   30, STRESS PERIOD  43
  ------------------------------------------------------------------------------

     CUMULATIVE VOLUMES      L**3       RATES FOR THIS TIME STEP      L**3/T
     ------------------                 ------------------------

           IN:                                      IN:
           ---                                      ---
           AG WELLS      =  2951730176.0000             AG WELLS      =           0.0000
      DIVERSION SEGMENTS =  1705213184.0000        DIVERSION SEGMENTS =          22.4700
           GW IRRIGATION =           0.0000             GW IRRIGATION =           0.0000
           SW IRRIGATION =           0.0000             SW IRRIGATION =           0.0000
        SYSTEM LOSSES GW =           0.0000          SYSTEM LOSSES GW =           0.0000
        SYSTEM LOSSES SW =           0.0000          SYSTEM LOSSES SW =           0.0000

                TOTAL IN =  4656943104.0000                  TOTAL IN =          22.4700

          OUT:                                     OUT:
          ----                                     ----
           AG WELLS      =           0.0000             AG WELLS      =           0.0000
      DIVERSION SEGMENTS =           0.0000        DIVERSION SEGMENTS =           0.0000
           GW IRRIGATION =  2951730176.0000             GW IRRIGATION =           0.0000
           SW IRRIGATION =  1705245312.0000             SW IRRIGATION =          22.4704
        SYSTEM LOSSES GW =           0.0000          SYSTEM LOSSES GW =           0.0000
        SYSTEM LOSSES SW =           0.0000          SYSTEM LOSSES SW =           0.0000

               TOTAL OUT =  4656975360.0000                 TOTAL OUT =          22.4704

                IN - OUT =      -32256.0000                  IN - OUT =      -4.4823E-04

     PERCENT DISCREPANCY =          -0.00         PERCENT DISCREPANCY =          -0.00



1
  VOLUMETRIC BUDGET FOR ENTIRE MODEL AT END OF TIME STEP   30, STRESS PERIOD  43
  ------------------------------------------------------------------------------

     CUMULATIVE VOLUMES      L**3       RATES FOR THIS TIME STEP      L**3/T
     ------------------                 ------------------------

           IN:                                      IN:
           ---                                      ---
             STORAGE     =  3039495424.0000               STORAGE     =           7.1952
       CONSTANT HEAD     =           0.0000         CONSTANT HEAD     =           0.0000
     HEAD DEP BOUNDS     =    31641032.0000       HEAD DEP BOUNDS     =           0.2864
      STREAM LEAKAGE     =  1324630912.0000        STREAM LEAKAGE     =          12.0148
        UZF RECHARGE     =  2873243136.0000          UZF RECHARGE     =          48.5612
               GW ET     =           0.0000                 GW ET     =           0.0000
     SURFACE LEAKAGE     =           0.0000       SURFACE LEAKAGE     =           0.0000
           AG WELLS      =           0.0000             AG WELLS      =           0.0000

                TOTAL IN =  7269010432.0000                  TOTAL IN =          68.0577

          OUT:                                     OUT:
          ----                                     ----
             STORAGE     =  3093470976.0000               STORAGE     =          56.7168
       CONSTANT HEAD     =           0.0000         CONSTANT HEAD     =           0.0000
     HEAD DEP BOUNDS     =    32041266.0000       HEAD DEP BOUNDS     =           0.2897
      STREAM LEAKAGE     =  1190960384.0000        STREAM LEAKAGE     =          11.0411
        UZF RECHARGE     =           0.0000          UZF RECHARGE     =           0.0000
               GW ET     =      831874.7500                 GW ET     =           0.0000
     SURFACE LEAKAGE     =           0.0000       SURFACE LEAKAGE     =           0.0000
           AG WELLS      =  2951730176.0000             AG WELLS      =           0.0000

               TOTAL OUT =  7269034496.0000                 TOTAL OUT =          68.0476

                IN - OUT =      -24064.0000                  IN - OUT =       1.0063E-02

     PERCENT DISCREPANCY =          -0.00         PERCENT DISCREPANCY =           0.01






         TIME SUMMARY AT END OF TIME STEP   30 IN STRESS PERIOD   43
                    SECONDS     MINUTES      HOURS       DAYS        YEARS
                    -----------------------------------------------------------
   TIME STEP LENGTH  87667.      1461.1      24.352      1.0147     2.77799E-03
 STRESS PERIOD TIME 2.63000E+06  43833.      730.56      30.440     8.33397E-02
         TOTAL TIME 1.10545E+08 1.84242E+06  30707.      1279.5      3.5030    
1
1
                            STRESS PERIOD NO.   44, LENGTH =   2630000.    
                            -----------------------------------------------

                              NUMBER OF TIME STEPS =    30

                               MULTIPLIER FOR DELT =     1.000

                            INITIAL TIME STEP SIZE =   87666.66    

 REUSING NON-PARAMETER GHB CELLS FROM LAST STRESS PERIOD

      2 GHB CELLS

 REUSING STREAM SEGMENT DATA FROM LAST STRESS PERIOD



            AREAL INFILTRATION RATE
 READING ON UNIT   19 WITH FORMAT: (FREE)              

            1           2           3           4           5           6           7           8           9          10
 ........................................................................................................................
   1   1.0000E-10  2.0000E-10   0.000       0.000       0.000       0.000       0.000       0.000       0.000       0.000    
   2   2.0000E-10  1.0000E-10  2.0000E-10   0.000       0.000      8.0000E-10  8.0000E-10  5.0000E-10   0.000       0.000    
   3    0.000      5.0000E-10  1.0000E-10  1.0000E-10  8.0000E-10  8.0000E-10  5.0000E-10  5.0000E-10   0.000       0.000    
   4   8.0000E-10  5.0000E-10  1.0000E-10  1.0000E-10  1.0000E-10  1.0000E-10  1.0000E-10  1.0000E-10  2.0000E-10   0.000    
   5   8.0000E-10  5.0000E-10  1.0000E-10  1.0000E-10  1.0000E-10  1.0000E-10  1.0000E-10  1.0000E-10  1.0000E-10  1.0000E-10
   6   8.0000E-10  5.0000E-10  5.0000E-10  2.0000E-10  2.0000E-10  1.0000E-10  1.0000E-10  1.0000E-10  1.0000E-10  5.0000E-10
   7   8.0000E-10  5.0000E-10  5.0000E-10  2.0000E-10  2.0000E-10  1.0000E-10  1.0000E-10  2.0000E-10  2.0000E-10   0.000    
   8    0.000      5.0000E-10  5.0000E-10  2.0000E-10  2.0000E-10  1.0000E-10  1.0000E-10  2.0000E-10  5.0000E-10   0.000    
   9    0.000      5.0000E-10  5.0000E-10  2.0000E-10  2.0000E-10  1.0000E-10  1.0000E-10  2.0000E-10  5.0000E-10   0.000    
  10    0.000      5.0000E-10  5.0000E-10  2.0000E-10  2.0000E-10  1.0000E-10  1.0000E-10  2.0000E-10  5.0000E-10  8.0000E-10
  11    0.000      1.0000E-10  1.0000E-10  1.0000E-10  1.0000E-10  1.0000E-10  1.0000E-10  2.0000E-10  5.0000E-10   0.000    
  12   1.0000E-10  1.0000E-10  1.0000E-10  1.0000E-10  1.0000E-10  1.0000E-10  1.0000E-10  1.0000E-10  2.0000E-10   0.000    
  13   1.0000E-10  1.0000E-10  2.0000E-10  2.0000E-10  2.0000E-10  2.0000E-10  2.0000E-10  1.0000E-10  1.0000E-10   0.000    
  14    0.000      2.0000E-10  5.0000E-10  5.0000E-10  5.0000E-10  5.0000E-10  5.0000E-10  2.0000E-10  1.0000E-10   0.000    
  15    0.000       0.000      8.0000E-10  8.0000E-10  8.0000E-10  8.0000E-10   0.000       0.000       0.000       0.000    

                  ET RATE =  4.000000E-07

 USING ET EXTINCTION DEPTH FROM PREVIOUS STRESS PERIOD. CURRENT PERIOD IS:      44

 USING EXTINCTION WATER CONTENT FROM PREVIOUS STRESS PERIOD. CURRENT PERIOD IS:      44

 USING AIR ENTRY PRESSURE FROM PREVIOUS STRESS PERIOD. CURRENT PERIOD IS:      44

 USING ROOT PRESSURE HEAD FROM PREVIOUS STRESS PERIOD. CURRENT PERIOD IS:      44

 USING ROOT ACTIVITY FROM PREVIOUS STRESS PERIOD. CURRENT PERIOD IS:      44

 PROCESSING AG STRESS PERIOD DATA

 READING AG STRESS PERIOD DATA

 READING IRRIGATION SEGMENT

 READING IRRIGATION WELL

 READING SUPPLEMENTAL WELL

 END PROCESSING AG STRESS PERIOD DATA OPTIONS
 
 SOLVING FOR HEAD 
                                                   Max.-Head-Change                         Max.-Flux-Residual
  Residual-Control   Outer-Iter.   Inner-Iter.     Column Row Layer    Maximum-Head-Change  Column Row Layer    Maximum-Flux-Residual          L2-NORM 
          0                 1           2             4    7     1       0.1264964996E+00       4    7    1         0.6722043494E+01      0.1144457824E+02
          0                 2           2             5    8     1      -0.1690355841E+00       5    8    1        -0.9328411619E+01      0.2065130262E+02
          0                 3           2             5    8     1      -0.6151028589E-01       5    8    1        -0.3391719280E+01      0.7852712580E+01
          0                 4           2             5    6     1      -0.2300261637E-01       5    6    1        -0.1269180274E+01      0.2724663911E+01
          0                 5           2             5    6     1      -0.8778521630E-02       5    6    1        -0.4844112243E+00      0.1016292832E+01
          0                 6           2             5    6     1      -0.3302602132E-02       5    6    1        -0.1848577529E+00      0.3130132503E+00
          0                 7           2             4    6     1      -0.1247248492E-02       5    6    1        -0.6936102438E-01      0.1186476232E+00
          0                 8           2             4    6     1      -0.4828606521E-03       4    6    1        -0.2632451689E-01      0.4521127266E-01
          0                 9           2             4    6     1      -0.1867814178E-03       4    6    1        -0.1018969885E-01      0.1723334987E-01
          0                10           1             4    6     1      -0.7219627358E-04       4    6    1        -0.3941028894E-02      0.6570707632E-02

    ------------------------------------------------
       NWT REQUIRED           10 OUTER ITERATIONS 
       AND A TOTAL OF         19 INNER ITERATIONS.
    ------------------------------------------------

 NO OUTPUT CONTROL FOR STRESS PERIOD   44   TIME STEP    1
 
 SOLVING FOR HEAD 
                                                   Max.-Head-Change                         Max.-Flux-Residual
  Residual-Control   Outer-Iter.   Inner-Iter.     Column Row Layer    Maximum-Head-Change  Column Row Layer    Maximum-Flux-Residual          L2-NORM 
          0                 1           2             4    7     1       0.1237371945E+00       4    7    1         0.6576786739E+01      0.1095425530E+02
          0                 2           2             5    8     1      -0.1110171683E+00       5    8    1        -0.6141098536E+01      0.1255298901E+02
          0                 3           2             4    7     1       0.8549006836E-01       4    7    1         0.4733121001E+01      0.1082267129E+02
          0                 4           2             4    7     1       0.3495160189E-01       4    7    1         0.1937013704E+01      0.4303611005E+01
          0                 5           2             4    7     1       0.1423711754E-01       4    7    1         0.7896697695E+00      0.1711897956E+01
          0                 6           2             4    7     1       0.5690930425E-02       4    7    1         0.3156700082E+00      0.6786702900E+00
          0                 7           2             4    7     1       0.2274571157E-02       4    7    1         0.1261772918E+00      0.2691669683E+00
          0                 8           2             4    7     1       0.9090045254E-03       4    7    1         0.5042935971E-01      0.1067942309E+00
          0                 9           2             4    7     1       0.3632278253E-03       4    7    1         0.2015280422E-01      0.4238576488E-01
          0                10           2             4    7     1       0.1451228872E-03       4    7    1         0.8052555120E-02      0.1682765269E-01
          0                11           1             4    7     1       0.5797415191E-04       4    6    1         0.3222427065E-02      0.6682594928E-02

    ------------------------------------------------
       NWT REQUIRED           11 OUTER ITERATIONS 
       AND A TOTAL OF         21 INNER ITERATIONS.
    ------------------------------------------------

 NO OUTPUT CONTROL FOR STRESS PERIOD   44   TIME STEP    2
 
 SOLVING FOR HEAD 
                                                   Max.-Head-Change                         Max.-Flux-Residual
  Residual-Control   Outer-Iter.   Inner-Iter.     Column Row Layer    Maximum-Head-Change  Column Row Layer    Maximum-Flux-Residual          L2-NORM 
          0                 1           2             4    7     1       0.1063833344E+00       4    7    1         0.5626668260E+01      0.1047013887E+02
          0                 2           2             5    8     1      -0.1032233686E+00       5    8    1        -0.5699738712E+01      0.1251948655E+02
          0                 3           2             4    7     1       0.3864485043E-01       4    7    1         0.2142189362E+01      0.4738006632E+01
          0                 4           2             5    8     1      -0.5333205711E-02       5    8    1        -0.3125938468E+00      0.5724429796E+00
          0                 5           2             5    8     1      -0.2111700018E-02       5    8    1        -0.1236483829E+00      0.2331527401E+00
          0                 6           2             5    8     1      -0.8370028510E-03       5    8    1        -0.4895927911E-01      0.9508238401E-01
          0                 7           2             5    8     1      -0.3321020205E-03       5    8    1        -0.1940586475E-01      0.3881861527E-01
          0                 8           2             5    8     1      -0.1319059365E-03       5    8    1        -0.7699825518E-02      0.1586462795E-01
          0                 9           1             5    8     1      -0.5244488845E-04       5    8    1        -0.3058278233E-02      0.6489948490E-02

    ------------------------------------------------
       NWT REQUIRED            9 OUTER ITERATIONS 
       AND A TOTAL OF         17 INNER ITERATIONS.
    ------------------------------------------------

 NO OUTPUT CONTROL FOR STRESS PERIOD   44   TIME STEP    3
 
 SOLVING FOR HEAD 
                                                   Max.-Head-Change                         Max.-Flux-Residual
  Residual-Control   Outer-Iter.   Inner-Iter.     Column Row Layer    Maximum-Head-Change  Column Row Layer    Maximum-Flux-Residual          L2-NORM 
          0                 1           2             4    7     1       0.1038210533E+00       4    7    1         0.5489863145E+01      0.1032787482E+02
          0                 2           2             5    8     1      -0.1022110712E+00       5    8    1        -0.5641067284E+01      0.1253412366E+02
          0                 3           2             4    7     1       0.3788945688E-01       4    7    1         0.2099553817E+01      0.4688748975E+01
          0                 4           2             5    8     1      -0.5448861609E-02       5    8    1        -0.3189332595E+00      0.6057429238E+00
          0                 5           2             5    8     1      -0.2159965661E-02       5    8    1        -0.1263353900E+00      0.2460814194E+00
          0                 6           2             5    8     1      -0.8568662683E-03       5    8    1        -0.5008007158E-01      0.1000880792E+00
          0                 7           2             5    8     1      -0.3401756197E-03       5    8    1        -0.1986691855E-01      0.4075160232E-01
          0                 8           2             5    8     1      -0.1351499430E-03       5    8    1        -0.7887148990E-02      0.1660909331E-01
          0                 9           1             5    8     1      -0.5373404482E-04       5    8    1        -0.3133517426E-02      0.6775897379E-02

    ------------------------------------------------
       NWT REQUIRED            9 OUTER ITERATIONS 
       AND A TOTAL OF         17 INNER ITERATIONS.
    ------------------------------------------------

 NO OUTPUT CONTROL FOR STRESS PERIOD   44   TIME STEP    4
 
 SOLVING FOR HEAD 
                                                   Max.-Head-Change                         Max.-Flux-Residual
  Residual-Control   Outer-Iter.   Inner-Iter.     Column Row Layer    Maximum-Head-Change  Column Row Layer    Maximum-Flux-Residual          L2-NORM 
          0                 1           2             4    7     1       0.1011450301E+00       4    7    1         0.5359800893E+01      0.9885774982E+01
          0                 2           2             5    8     1      -0.1014627045E+00       5    8    1        -0.5593978645E+01      0.1269497754E+02
          0                 3           2             4    7     1       0.3741080960E-01       4    7    1         0.2073178962E+01      0.4649873885E+01
          0                 4           2             5    8     1      -0.5368206446E-02       5    8    1        -0.3134928413E+00      0.6261305850E+00
          0                 5           2             5    8     1      -0.2133667432E-02       5    8    1        -0.1245564730E+00      0.2534146766E+00
          0                 6           2             5    8     1      -0.8478190607E-03       5    8    1        -0.4947338385E-01      0.1025689672E+00
          0                 7           2             5    8     1      -0.3370132055E-03       5    8    1        -0.1965814290E-01      0.4154409855E-01
          0                 8           2             5    8     1      -0.1340170815E-03       5    8    1        -0.7814132692E-02      0.1683838316E-01
          0                 9           1             5    8     1      -0.5331445630E-04       5    8    1        -0.3107339247E-02      0.6829329952E-02

    ------------------------------------------------
       NWT REQUIRED            9 OUTER ITERATIONS 
       AND A TOTAL OF         17 INNER ITERATIONS.
    ------------------------------------------------

 NO OUTPUT CONTROL FOR STRESS PERIOD   44   TIME STEP    5
 
 SOLVING FOR HEAD 
                                                   Max.-Head-Change                         Max.-Flux-Residual
  Residual-Control   Outer-Iter.   Inner-Iter.     Column Row Layer    Maximum-Head-Change  Column Row Layer    Maximum-Flux-Residual          L2-NORM 
          0                 1           2             4    7     1       0.9836473282E-01       4    7    1         0.5215423626E+01      0.9559017949E+01
          0                 2           2             5    8     1      -0.1007528291E+00       5    8    1        -0.5553712433E+01      0.1275405497E+02
          0                 3           2             4    7     1       0.2979292177E-01       4    7    1         0.1652614640E+01      0.3655535295E+01
          0                 4           2             5    8     1      -0.7872917039E-02       5    8    1        -0.4585856230E+00      0.1002581500E+01
          0                 5           2             5    8     1      -0.3136794303E-02       5    8    1        -0.1826477517E+00      0.4057646015E+00
          0                 6           2             5    8     1      -0.1249691493E-02       5    8    1        -0.7273883267E-01      0.1642626377E+00
          0                 7           2             5    8     1      -0.4980568716E-03       5    8    1        -0.2897859726E-01      0.6654278500E-01
          0                 8           2             4    8     1      -0.1999889978E-03       5    8    1        -0.1154909118E-01      0.2697410128E-01
          0                 9           1             4    8     1      -0.8073368822E-04       4    8    1        -0.4639075672E-02      0.1094116138E-01

    ------------------------------------------------
       NWT REQUIRED            9 OUTER ITERATIONS 
       AND A TOTAL OF         17 INNER ITERATIONS.
    ------------------------------------------------

 NO OUTPUT CONTROL FOR STRESS PERIOD   44   TIME STEP    6
 
 SOLVING FOR HEAD 
                                                   Max.-Head-Change                         Max.-Flux-Residual
  Residual-Control   Outer-Iter.   Inner-Iter.     Column Row Layer    Maximum-Head-Change  Column Row Layer    Maximum-Flux-Residual          L2-NORM 
          0                 1           2             4    7     1       0.8808140432E-01       4    7    1         0.4651266885E+01      0.9129914235E+01
          0                 2           2             5    8     1      -0.9275542834E-01       5    8    1        -0.5112686906E+01      0.1190960914E+02
          0                 3           2             4    7     1       0.2289187512E-01       4    7    1         0.1269725881E+01      0.2785958104E+01
          0                 4           2             5    8     1      -0.1001293243E-01       5    8    1        -0.5828792826E+00      0.1338960251E+01
          0                 5           2             5    8     1      -0.3991736784E-02       5    8    1        -0.2322774298E+00      0.5409387133E+00
          0                 6           2             4    8     1      -0.1592636715E-02       5    8    1        -0.9256594318E-01      0.2185390864E+00
          0                 7           2             4    8     1      -0.6428682333E-03       4    8    1        -0.3694582991E-01      0.8831912776E-01
          0                 8           2             4    8     1      -0.2595002807E-03       4    8    1        -0.1491284345E-01      0.3570387428E-01
          0                 9           2             4    8     1      -0.1047528572E-03       4    8    1        -0.6019580112E-02      0.1443783404E-01
          0                10           1             4    6     1      -0.4284563386E-04       4    6    1        -0.2470038214E-02      0.5839916411E-02

    ------------------------------------------------
       NWT REQUIRED           10 OUTER ITERATIONS 
       AND A TOTAL OF         19 INNER ITERATIONS.
    ------------------------------------------------

 NO OUTPUT CONTROL FOR STRESS PERIOD   44   TIME STEP    7
 
 SOLVING FOR HEAD 
                                                   Max.-Head-Change                         Max.-Flux-Residual
  Residual-Control   Outer-Iter.   Inner-Iter.     Column Row Layer    Maximum-Head-Change  Column Row Layer    Maximum-Flux-Residual          L2-NORM 
          0                 1           2             4    7     1       0.8236538293E-01       4    7    1         0.4337237678E+01      0.9033943198E+01
          0                 2           2             5    8     1      -0.9047133255E-01       5    8    1        -0.4981701752E+01      0.1167461219E+02
          0                 3           2             4    7     1       0.2117902927E-01       4    7    1         0.1173363605E+01      0.2642698791E+01
          0                 4           2             5    8     1      -0.1024809175E-01       5    8    1        -0.5964281257E+00      0.1385856817E+01
          0                 5           2             5    8     1      -0.4086455000E-02       5    8    1        -0.2377305772E+00      0.5600521874E+00
          0                 6           2             4    8     1      -0.1643284555E-02       5    8    1        -0.9476457330E-01      0.2263325333E+00
          0                 7           2             4    8     1      -0.6635195982E-03       4    8    1        -0.3812113487E-01      0.9149461137E-01
          0                 8           2             4    8     1      -0.2679160884E-03       4    8    1        -0.1539204708E-01      0.3699742873E-01
          0                 9           2             4    6     1      -0.1086146143E-03       4    6    1        -0.6258524083E-02      0.1496465144E-01
          0                10           1             4    6     1      -0.4466826265E-04       4    6    1        -0.2575130954E-02      0.6054422482E-02

    ------------------------------------------------
       NWT REQUIRED           10 OUTER ITERATIONS 
       AND A TOTAL OF         19 INNER ITERATIONS.
    ------------------------------------------------

 NO OUTPUT CONTROL FOR STRESS PERIOD   44   TIME STEP    8
 
 SOLVING FOR HEAD 
                                                   Max.-Head-Change                         Max.-Flux-Residual
  Residual-Control   Outer-Iter.   Inner-Iter.     Column Row Layer    Maximum-Head-Change  Column Row Layer    Maximum-Flux-Residual          L2-NORM 
          0                 1           2             4    7     1       0.8128576465E-01       4    7    1         0.4276698475E+01      0.9061429524E+01
          0                 2           2             5    8     1      -0.8980631550E-01       5    8    1        -0.4944738670E+01      0.1163190339E+02
          0                 3           2             4    7     1       0.2101316696E-01       4    7    1         0.1163708878E+01      0.2648354793E+01
          0                 4           2             5    8     1      -0.1013265414E-01       5    8    1        -0.5896487166E+00      0.1375713350E+01
          0                 5           2             5    8     1      -0.4040865774E-02       5    8    1        -0.2350538870E+00      0.5561844952E+00
          0                 6           2             4    8     1      -0.1630109353E-02       5    8    1        -0.9370625858E-01      0.2248543077E+00
          0                 7           2             4    8     1      -0.6582474980E-03       4    8    1        -0.3781558111E-01      0.9093080464E-01
          0                 8           2             4    8     1      -0.2658059669E-03       4    8    1        -0.1526978087E-01      0.3678238837E-01
          0                 9           2             4    6     1      -0.1083548800E-03       4    6    1        -0.6243398467E-02      0.1488264857E-01
          0                10           1             4    6     1      -0.4456343575E-04       4    6    1        -0.2568974973E-02      0.6023165085E-02

    ------------------------------------------------
       NWT REQUIRED           10 OUTER ITERATIONS 
       AND A TOTAL OF         19 INNER ITERATIONS.
    ------------------------------------------------

 NO OUTPUT CONTROL FOR STRESS PERIOD   44   TIME STEP    9
 
 SOLVING FOR HEAD 
                                                   Max.-Head-Change                         Max.-Flux-Residual
  Residual-Control   Outer-Iter.   Inner-Iter.     Column Row Layer    Maximum-Head-Change  Column Row Layer    Maximum-Flux-Residual          L2-NORM 
          0                 1           2             4    7     1       0.8026221754E-01       4    7    1         0.4223561351E+01      0.8959937037E+01
          0                 2           2             5    8     1      -0.8919713744E-01       5    8    1        -0.4910890371E+01      0.1164903781E+02
          0                 3           2             4    7     1       0.2083350257E-01       4    7    1         0.1153401558E+01      0.2646576021E+01
          0                 4           2             5    8     1      -0.1002464927E-01       5    8    1        -0.5832932701E+00      0.1372528968E+01
          0                 5           2             4    8     1      -0.4005757227E-02       5    8    1        -0.2325501475E+00      0.5533008778E+00
          0                 6           2             5    7     1      -0.1620109377E-02       4    8    1        -0.9292883471E-01      0.2230113135E+00
          0                 7           2             5    7     1      -0.6551301842E-03       5    7    1        -0.3758548404E-01      0.8989971207E-01
          0                 8           2             5    7     1      -0.2648566966E-03       5    7    1        -0.1519811347E-01      0.3624516427E-01
          0                 9           2             5    7     1      -0.1070540213E-03       5    7    1        -0.6144118420E-02      0.1461494909E-01
          0                10           1             4    7     1      -0.4358727293E-04       5    7    1        -0.2483352726E-02      0.5893801187E-02

    ------------------------------------------------
       NWT REQUIRED           10 OUTER ITERATIONS 
       AND A TOTAL OF         19 INNER ITERATIONS.
    ------------------------------------------------

 NO OUTPUT CONTROL FOR STRESS PERIOD   44   TIME STEP   10
 
 SOLVING FOR HEAD 
                                                   Max.-Head-Change                         Max.-Flux-Residual
  Residual-Control   Outer-Iter.   Inner-Iter.     Column Row Layer    Maximum-Head-Change  Column Row Layer    Maximum-Flux-Residual          L2-NORM 
          0                 1           2             4    7     1       0.7923151328E-01       4    7    1         0.4170487147E+01      0.8853503424E+01
          0                 2           2             5    8     1      -0.8863909084E-01       5    8    1        -0.4879868962E+01      0.1166078755E+02
          0                 3           2             4    7     1       0.2064673991E-01       4    7    1         0.1143198160E+01      0.2632826259E+01
          0                 4           2             5    8     1      -0.9923858755E-02       5    8    1        -0.5773533150E+00      0.1370071578E+01
          0                 5           2             5    7     1      -0.3986798708E-02       5    8    1        -0.2302132865E+00      0.5523579491E+00
          0                 6           2             5    7     1      -0.1612470068E-02       5    7    1        -0.9249391282E-01      0.2226495812E+00
          0                 7           2             5    7     1      -0.6520145712E-03       5    7    1        -0.3740819157E-01      0.8976073177E-01
          0                 8           2             5    7     1      -0.2635905391E-03       5    7    1        -0.1512581712E-01      0.3619168764E-01
          0                 9           2             4    7     1      -0.1069311897E-03       5    7    1        -0.6114741660E-02      0.1459434260E-01
          0                10           1             4    7     1      -0.4368894492E-04       4    7    1        -0.2481355665E-02      0.5885849116E-02

    ------------------------------------------------
       NWT REQUIRED           10 OUTER ITERATIONS 
       AND A TOTAL OF         19 INNER ITERATIONS.
    ------------------------------------------------

 NO OUTPUT CONTROL FOR STRESS PERIOD   44   TIME STEP   11
 
 SOLVING FOR HEAD 
                                                   Max.-Head-Change                         Max.-Flux-Residual
  Residual-Control   Outer-Iter.   Inner-Iter.     Column Row Layer    Maximum-Head-Change  Column Row Layer    Maximum-Flux-Residual          L2-NORM 
          0                 1           2             4    7     1       0.7828291081E-01       4    7    1         0.4116726644E+01      0.8898836519E+01
          0                 2           2             5    8     1      -0.8812994904E-01       5    8    1        -0.4851495169E+01      0.1162467328E+02
          0                 3           2             4    7     1       0.2049825729E-01       4    7    1         0.1134450502E+01      0.2639538404E+01
          0                 4           2             5    8     1      -0.9827821909E-02       5    8    1        -0.5717378444E+00      0.1360263009E+01
          0                 5           2             5    7     1      -0.3951045495E-02       5    8    1        -0.2279851039E+00      0.5484315019E+00
          0                 6           2             5    7     1      -0.1598195507E-02       5    7    1        -0.9166478120E-01      0.2210786162E+00
          0                 7           2             5    7     1      -0.6463132829E-03       5    7    1        -0.3707716254E-01      0.8913183403E-01
          0                 8           2             5    7     1      -0.2613126166E-03       5    7    1        -0.1499360514E-01      0.3593978909E-01
          0                 9           2             4    7     1      -0.1067862705E-03       4    7    1        -0.6063510573E-02      0.1449339594E-01
          0                10           1             4    7     1      -0.4361822198E-04       4    7    1        -0.2477971718E-02      0.5845375949E-02

    ------------------------------------------------
       NWT REQUIRED           10 OUTER ITERATIONS 
       AND A TOTAL OF         19 INNER ITERATIONS.
    ------------------------------------------------

 NO OUTPUT CONTROL FOR STRESS PERIOD   44   TIME STEP   12
 
 SOLVING FOR HEAD 
                                                   Max.-Head-Change                         Max.-Flux-Residual
  Residual-Control   Outer-Iter.   Inner-Iter.     Column Row Layer    Maximum-Head-Change  Column Row Layer    Maximum-Flux-Residual          L2-NORM 
          0                 1           2             4    7     1       0.7746748828E-01       4    7    1         0.4070385350E+01      0.8945647157E+01
          0                 2           2             5    8     1      -0.8766187635E-01       5    8    1        -0.4825494470E+01      0.1159198694E+02
          0                 3           2             4    7     1       0.2036403304E-01       4    7    1         0.1126597787E+01      0.2644164892E+01
          0                 4           2             5    8     1      -0.9737745614E-02       5    8    1        -0.5664549935E+00      0.1351354340E+01
          0                 5           2             5    7     1      -0.3924535600E-02       5    8    1        -0.2258962802E+00      0.5448683519E+00
          0                 6           2             5    7     1      -0.1587507904E-02       5    7    1        -0.9104981239E-01      0.2196531578E+00
          0                 7           2             5    7     1      -0.6420051150E-03       5    7    1        -0.3682924177E-01      0.8856123021E-01
          0                 8           2             4    7     1      -0.2609505483E-03       5    7    1        -0.1489367122E-01      0.3571124465E-01
          0                 9           2             4    7     1      -0.1066221778E-03       4    7    1        -0.6055552323E-02      0.1440180848E-01
          0                10           1             4    7     1      -0.4354171401E-04       4    7    1        -0.2474146658E-02      0.5808654316E-02

    ------------------------------------------------
       NWT REQUIRED           10 OUTER ITERATIONS 
       AND A TOTAL OF         19 INNER ITERATIONS.
    ------------------------------------------------

 NO OUTPUT CONTROL FOR STRESS PERIOD   44   TIME STEP   13
 
 SOLVING FOR HEAD 
                                                   Max.-Head-Change                         Max.-Flux-Residual
  Residual-Control   Outer-Iter.   Inner-Iter.     Column Row Layer    Maximum-Head-Change  Column Row Layer    Maximum-Flux-Residual          L2-NORM 
          0                 1           2             4    7     1       0.7677021837E-01       4    7    1         0.4030630489E+01      0.8993053716E+01
          0                 2           2             5    8     1      -0.8723242069E-01       5    8    1        -0.4801647292E+01      0.1156157053E+02
          0                 3           2             4    7     1       0.2024260956E-01       4    7    1         0.1119499897E+01      0.2648096530E+01
          0                 4           2             5    8     1      -0.9652627216E-02       5    8    1        -0.5614653252E+00      0.1342770529E+01
          0                 5           2             5    7     1      -0.3898842862E-02       5    8    1        -0.2239204636E+00      0.5414279512E+00
          0                 6           2             5    7     1      -0.1577149093E-02       5    7    1        -0.9045379864E-01      0.2182758483E+00
          0                 7           2             5    7     1      -0.6378292165E-03       5    7    1        -0.3658894756E-01      0.8800952967E-01
          0                 8           2             4    7     1      -0.2605142067E-03       5    7    1        -0.1479680529E-01      0.3549013987E-01
          0                 9           2             4    7     1      -0.1064219117E-03       4    7    1        -0.6045386624E-02      0.1431315095E-01
          0                10           1             4    7     1      -0.4345150159E-04       4    7    1        -0.2469484161E-02      0.5773088030E-02

    ------------------------------------------------
       NWT REQUIRED           10 OUTER ITERATIONS 
       AND A TOTAL OF         19 INNER ITERATIONS.
    ------------------------------------------------

 NO OUTPUT CONTROL FOR STRESS PERIOD   44   TIME STEP   14
 
 SOLVING FOR HEAD 
                                                   Max.-Head-Change                         Max.-Flux-Residual
  Residual-Control   Outer-Iter.   Inner-Iter.     Column Row Layer    Maximum-Head-Change  Column Row Layer    Maximum-Flux-Residual          L2-NORM 
          0                 1           2             4    7     1       0.7617794046E-01       4    7    1         0.3996732430E+01      0.9040475265E+01
          0                 2           2             5    8     1      -0.8683831244E-01       5    8    1        -0.4779770847E+01      0.1153323816E+02
          0                 3           2             4    7     1       0.2013260482E-01       4    7    1         0.1113075685E+01      0.2651380934E+01
          0                 4           2             4    8     1      -0.9573698109E-02       5    8    1        -0.5567426203E+00      0.1334482005E+01
          0                 5           2             5    7     1      -0.3873998293E-02       4    8    1        -0.2221808290E+00      0.5381116474E+00
          0                 6           2             5    7     1      -0.1567131648E-02       5    7    1        -0.8987745949E-01      0.2169473978E+00
          0                 7           2             4    7     1      -0.6362380617E-03       5    7    1        -0.3635657159E-01      0.8747709374E-01
          0                 8           2             4    7     1      -0.2599992538E-03       4    7    1        -0.1476479568E-01      0.3527663581E-01
          0                 9           2             4    7     1      -0.1061920248E-03       4    7    1        -0.6033401268E-02      0.1422749667E-01
          0                10           1             4    7     1      -0.4335015083E-04       4    7    1        -0.2464136068E-02      0.5738709791E-02

    ------------------------------------------------
       NWT REQUIRED           10 OUTER ITERATIONS 
       AND A TOTAL OF         19 INNER ITERATIONS.
    ------------------------------------------------

 NO OUTPUT CONTROL FOR STRESS PERIOD   44   TIME STEP   15
 
 SOLVING FOR HEAD 
                                                   Max.-Head-Change                         Max.-Flux-Residual
  Residual-Control   Outer-Iter.   Inner-Iter.     Column Row Layer    Maximum-Head-Change  Column Row Layer    Maximum-Flux-Residual          L2-NORM 
          0                 1           2             4    7     1       0.7567835179E-01       4    7    1         0.3968009665E+01      0.9087420796E+01
          0                 2           2             5    8     1      -0.8647618571E-01       5    8    1        -0.4759676724E+01      0.1150681741E+02
          0                 3           2             4    7     1       0.2003264252E-01       4    7    1         0.1107244662E+01      0.2654053786E+01
          0                 4           2             4    8     1      -0.9513028531E-02       5    8    1        -0.5522654727E+00      0.1326474243E+01
          0                 5           2             5    7     1      -0.3849881509E-02       4    8    1        -0.2207717220E+00      0.5348987795E+00
          0                 6           2             5    7     1      -0.1557406684E-02       5    7    1        -0.8931800162E-01      0.2156596166E+00
          0                 7           2             4    7     1      -0.6349080485E-03       5    7    1        -0.3613097969E-01      0.8696066850E-01
          0                 8           2             4    7     1      -0.2594105301E-03       4    7    1        -0.1473384855E-01      0.3506944267E-01
          0                 9           2             4    7     1      -0.1059342336E-03       4    7    1        -0.6019708074E-02      0.1414433304E-01
          0                10           1             4    7     1      -0.4323826297E-04       4    7    1        -0.2458142013E-02      0.5705315630E-02

    ------------------------------------------------
       NWT REQUIRED           10 OUTER ITERATIONS 
       AND A TOTAL OF         19 INNER ITERATIONS.
    ------------------------------------------------

 NO OUTPUT CONTROL FOR STRESS PERIOD   44   TIME STEP   16
 
 SOLVING FOR HEAD 
                                                   Max.-Head-Change                         Max.-Flux-Residual
  Residual-Control   Outer-Iter.   Inner-Iter.     Column Row Layer    Maximum-Head-Change  Column Row Layer    Maximum-Flux-Residual          L2-NORM 
          0                 1           2             4    7     1       0.7526127394E-01       4    7    1         0.3943897073E+01      0.9133522950E+01
          0                 2           2             5    8     1      -0.8614342670E-01       5    8    1        -0.4741219033E+01      0.1148215711E+02
          0                 3           2             4    7     1       0.1994165726E-01       4    6    1         0.1102155169E+01      0.2656159955E+01
          0                 4           2             4    8     1      -0.9454451729E-02       5    8    1        -0.5480106547E+00      0.1318717524E+01
          0                 5           2             5    7     1      -0.3826531216E-02       4    8    1        -0.2194144678E+00      0.5317928659E+00
          0                 6           2             4    7     1      -0.1549696141E-02       5    7    1        -0.8877632315E-01      0.2144140407E+00
          0                 7           2             4    7     1      -0.6334197563E-03       4    7    1        -0.3596396280E-01      0.8646091763E-01
          0                 8           2             4    7     1      -0.2587623465E-03       4    7    1        -0.1469923784E-01      0.3486884470E-01
          0                 9           2             4    7     1      -0.1056541592E-03       4    7    1        -0.6004638726E-02      0.1406378079E-01
          0                10           1             4    7     1      -0.4311804605E-04       4    7    1        -0.2451632261E-02      0.5672956608E-02

    ------------------------------------------------
       NWT REQUIRED           10 OUTER ITERATIONS 
       AND A TOTAL OF         19 INNER ITERATIONS.
    ------------------------------------------------

 NO OUTPUT CONTROL FOR STRESS PERIOD   44   TIME STEP   17
 
 SOLVING FOR HEAD 
                                                   Max.-Head-Change                         Max.-Flux-Residual
  Residual-Control   Outer-Iter.   Inner-Iter.     Column Row Layer    Maximum-Head-Change  Column Row Layer    Maximum-Flux-Residual          L2-NORM 
          0                 1           2             4    7     1       0.7491681160E-01       4    7    1         0.3923846662E+01      0.9178484948E+01
          0                 2           2             4    8     1      -0.8584786201E-01       5    8    1        -0.4724252878E+01      0.1145912510E+02
          0                 3           2             4    7     1       0.1985854906E-01       4    6    1         0.1102306923E+01      0.2657730757E+01
          0                 4           2             4    8     1      -0.9397887969E-02       5    8    1        -0.5439629851E+00      0.1311203957E+01
          0                 5           2             5    7     1      -0.3803813430E-02       4    8    1        -0.2181000681E+00      0.5287734917E+00
          0                 6           2             4    7     1      -0.1545908966E-02       5    7    1        -0.8824931559E-01      0.2132025480E+00
          0                 7           2             4    7     1      -0.6317791240E-03       4    7    1        -0.3587590485E-01      0.8597460675E-01
          0                 8           2             4    7     1      -0.2580565890E-03       4    7    1        -0.1466110036E-01      0.3467355293E-01
          0                 9           2             4    7     1      -0.1053523640E-03       4    7    1        -0.5988236629E-02      0.1398532604E-01
          0                10           1             4    7     1      -0.4298965114E-04       4    7    1        -0.2444619789E-02      0.5641427819E-02

    ------------------------------------------------
       NWT REQUIRED           10 OUTER ITERATIONS 
       AND A TOTAL OF         19 INNER ITERATIONS.
    ------------------------------------------------

 NO OUTPUT CONTROL FOR STRESS PERIOD   44   TIME STEP   18
 
 SOLVING FOR HEAD 
                                                   Max.-Head-Change                         Max.-Flux-Residual
  Residual-Control   Outer-Iter.   Inner-Iter.     Column Row Layer    Maximum-Head-Change  Column Row Layer    Maximum-Flux-Residual          L2-NORM 
          0                 1           2             4    7     1       0.7463614147E-01       4    7    1         0.3907367973E+01      0.9222124887E+01
          0                 2           2             4    8     1      -0.8565934231E-01       5    8    1        -0.4708642569E+01      0.1143758758E+02
          0                 3           2             4    7     1       0.1978231749E-01       4    6    1         0.1102236113E+01      0.2658798125E+01
          0                 4           2             4    8     1      -0.9343081069E-02       5    8    1        -0.5400991035E+00      0.1303902619E+01
          0                 5           2             5    7     1      -0.3781763454E-02       4    8    1        -0.2168292590E+00      0.5258447872E+00
          0                 6           2             4    7     1      -0.1541802489E-02       5    7    1        -0.8773779837E-01      0.2120268978E+00
          0                 7           2             4    7     1      -0.6300188072E-03       4    7    1        -0.3578045654E-01      0.8550248074E-01
          0                 8           2             4    7     1      -0.2573060895E-03       4    7    1        -0.1462019305E-01      0.3448388090E-01
          0                 9           1             4    7     1      -0.1050338943E-03       4    7    1        -0.5970799200E-02      0.1390909989E-01
          0                10           1             4    7     1      -0.4285506222E-04       4    7    1        -0.2437221497E-02      0.5610783306E-02

    ------------------------------------------------
       NWT REQUIRED           10 OUTER ITERATIONS 
       AND A TOTAL OF         18 INNER ITERATIONS.
    ------------------------------------------------

 NO OUTPUT CONTROL FOR STRESS PERIOD   44   TIME STEP   19
 
 SOLVING FOR HEAD 
                                                   Max.-Head-Change                         Max.-Flux-Residual
  Residual-Control   Outer-Iter.   Inner-Iter.     Column Row Layer    Maximum-Head-Change  Column Row Layer    Maximum-Flux-Residual          L2-NORM 
          0                 1           2             4    7     1       0.7441194037E-01       4    7    1         0.3894054512E+01      0.9264320602E+01
          0                 2           2             4    8     1      -0.8548330341E-01       5    8    1        -0.4694270562E+01      0.1141742820E+02
          0                 3           2             4    7     1       0.1971218226E-01       4    6    1         0.1101962568E+01      0.2659398307E+01
          0                 4           2             4    8     1      -0.9289982495E-02       5    8    1        -0.5364081450E+00      0.1296809096E+01
          0                 5           2             4    7     1      -0.3760739128E-02       4    8    1        -0.2155951954E+00      0.5229911921E+00
          0                 6           2             4    7     1      -0.1537391521E-02       4    7    1        -0.8727835573E-01      0.2108808991E+00
          0                 7           2             4    7     1      -0.6281437721E-03       4    7    1        -0.3567795958E-01      0.8504207398E-01
          0                 8           2             4    7     1      -0.2565124601E-03       4    7    1        -0.1457663036E-01      0.3429884601E-01
          0                 9           1             4    7     1      -0.1046992449E-03       4    7    1        -0.5952363501E-02      0.1383471065E-01
          0                10           1             4    7     1      -0.4271441977E-04       4    7    1        -0.2429448752E-02      0.5580867410E-02

    ------------------------------------------------
       NWT REQUIRED           10 OUTER ITERATIONS 
       AND A TOTAL OF         18 INNER ITERATIONS.
    ------------------------------------------------

 NO OUTPUT CONTROL FOR STRESS PERIOD   44   TIME STEP   20
 
 SOLVING FOR HEAD 
                                                   Max.-Head-Change                         Max.-Flux-Residual
  Residual-Control   Outer-Iter.   Inner-Iter.     Column Row Layer    Maximum-Head-Change  Column Row Layer    Maximum-Flux-Residual          L2-NORM 
          0                 1           2             4    7     1       0.7423741876E-01       4    7    1         0.3883529113E+01      0.9304964905E+01
          0                 2           2             4    8     1      -0.8531876813E-01       5    8    1        -0.4681038490E+01      0.1139855592E+02
          0                 3           2             4    6     1       0.1966959928E-01       4    6    1         0.1101508837E+01      0.2659570070E+01
          0                 4           2             4    8     1      -0.9238414958E-02       5    8    1        -0.5328738107E+00      0.1289903298E+01
          0                 5           2             4    7     1      -0.3749788761E-02       4    8    1        -0.2143994894E+00      0.5202187907E+00
          0                 6           2             4    7     1      -0.1532747761E-02       4    7    1        -0.8702391829E-01      0.2097670741E+00
          0                 7           2             4    7     1      -0.6261823111E-03       4    7    1        -0.3557007607E-01      0.8459442965E-01
          0                 8           2             4    7     1      -0.2556868689E-03       4    7    1        -0.1453106814E-01      0.3411887865E-01
          0                 9           1             4    7     1      -0.1043528286E-03       4    7    1        -0.5933188482E-02      0.1376233552E-01
          0                10           1             4    7     1      -0.4256946760E-04       4    7    1        -0.2421403883E-02      0.5551752810E-02

    ------------------------------------------------
       NWT REQUIRED           10 OUTER ITERATIONS 
       AND A TOTAL OF         18 INNER ITERATIONS.
    ------------------------------------------------

 NO OUTPUT CONTROL FOR STRESS PERIOD   44   TIME STEP   21
 
 SOLVING FOR HEAD 
                                                   Max.-Head-Change                         Max.-Flux-Residual
  Residual-Control   Outer-Iter.   Inner-Iter.     Column Row Layer    Maximum-Head-Change  Column Row Layer    Maximum-Flux-Residual          L2-NORM 
          0                 1           2             4    7     1       0.7410626626E-01       4    7    1         0.3875441210E+01      0.9344020254E+01
          0                 2           2             4    8     1      -0.8516482465E-01       5    8    1        -0.4668841283E+01      0.1138086074E+02
          0                 3           2             4    6     1       0.1965816298E-01       4    6    1         0.1100882810E+01      0.2659326110E+01
          0                 4           2             4    8     1      -0.9188281327E-02       5    8    1        -0.5294830172E+00      0.1283172891E+01
          0                 5           2             4    7     1      -0.3738244724E-02       4    8    1        -0.2132360754E+00      0.5175134478E+00
          0                 6           2             4    7     1      -0.1527881510E-02       4    7    1        -0.8675573982E-01      0.2086797902E+00
          0                 7           2             4    7     1      -0.6241376895E-03       4    7    1        -0.3545704335E-01      0.8415730141E-01
          0                 8           2             4    7     1      -0.2548302884E-03       4    7    1        -0.1448358153E-01      0.3394308234E-01
          0                 9           1             4    7     1      -0.1039949037E-03       4    7    1        -0.5913296442E-02      0.1369161644E-01
          0                10           1             4    7     1      -0.4242025754E-04       4    7    1        -0.2413092756E-02      0.5523296338E-02

    ------------------------------------------------
       NWT REQUIRED           10 OUTER ITERATIONS 
       AND A TOTAL OF         18 INNER ITERATIONS.
    ------------------------------------------------

 NO OUTPUT CONTROL FOR STRESS PERIOD   44   TIME STEP   22
 
 SOLVING FOR HEAD 
                                                   Max.-Head-Change                         Max.-Flux-Residual
  Residual-Control   Outer-Iter.   Inner-Iter.     Column Row Layer    Maximum-Head-Change  Column Row Layer    Maximum-Flux-Residual          L2-NORM 
          0                 1           2             4    7     1       0.7401285792E-01       4    6    1         0.3872085307E+01      0.9381445027E+01
          0                 2           2             4    8     1      -0.8502072695E-01       5    8    1        -0.4657588490E+01      0.1136427076E+02
          0                 3           2             4    6     1       0.1964402577E-01       4    6    1         0.1100102696E+01      0.2658699072E+01
          0                 4           2             4    8     1      -0.9139483933E-02       5    8    1        -0.5262235283E+00      0.1276607040E+01
          0                 5           2             4    7     1      -0.3726216541E-02       4    8    1        -0.2121041201E+00      0.5148744545E+00
          0                 6           2             4    7     1      -0.1522835401E-02       4    7    1        -0.8647635824E-01      0.2076188187E+00
          0                 7           2             4    7     1      -0.6220265064E-03       4    7    1        -0.3533984930E-01      0.8373061851E-01
          0                 8           2             4    7     1      -0.2539491817E-03       4    7    1        -0.1443455512E-01      0.3377143657E-01
          0                 9           1             4    7     1      -0.1036279870E-03       4    7    1        -0.5892837131E-02      0.1362254813E-01
          0                10           1             4    7     1      -0.4226777075E-04       4    7    1        -0.2404573693E-02      0.5495497027E-02

    ------------------------------------------------
       NWT REQUIRED           10 OUTER ITERATIONS 
       AND A TOTAL OF         18 INNER ITERATIONS.
    ------------------------------------------------

 NO OUTPUT CONTROL FOR STRESS PERIOD   44   TIME STEP   23
 
 SOLVING FOR HEAD 
                                                   Max.-Head-Change                         Max.-Flux-Residual
  Residual-Control   Outer-Iter.   Inner-Iter.     Column Row Layer    Maximum-Head-Change  Column Row Layer    Maximum-Flux-Residual          L2-NORM 
          0                 1           2             4    7     1       0.7395246069E-01       4    6    1         0.3887014699E+01      0.9417251001E+01
          0                 2           2             4    8     1      -0.8488560255E-01       5    8    1        -0.4647206471E+01      0.1134869945E+02
          0                 3           2             4    6     1       0.1962735906E-01       4    6    1         0.1099178362E+01      0.2657710021E+01
          0                 4           2             4    8     1      -0.9091892559E-02       5    8    1        -0.5230842253E+00      0.1270191192E+01
          0                 5           2             4    7     1      -0.3713747805E-02       4    8    1        -0.2109996512E+00      0.5122937331E+00
          0                 6           2             4    7     1      -0.1517625346E-02       4    7    1        -0.8618678172E-01      0.2065809516E+00
          0                 7           2             4    7     1      -0.6198545302E-03       4    7    1        -0.3521886181E-01      0.8331310558E-01
          0                 8           2             4    7     1      -0.2530456241E-03       4    7    1        -0.1438412226E-01      0.3360343380E-01
          0                 9           1             4    7     1      -0.1032528171E-03       4    7    1        -0.5871858490E-02      0.1355492849E-01
          0                10           1             4    7     1      -0.4211226674E-04       4    7    1        -0.2395863790E-02      0.5468274316E-02

    ------------------------------------------------
       NWT REQUIRED           10 OUTER ITERATIONS 
       AND A TOTAL OF         18 INNER ITERATIONS.
    ------------------------------------------------

 NO OUTPUT CONTROL FOR STRESS PERIOD   44   TIME STEP   24
 
 SOLVING FOR HEAD 
                                                   Max.-Head-Change                         Max.-Flux-Residual
  Residual-Control   Outer-Iter.   Inner-Iter.     Column Row Layer    Maximum-Head-Change  Column Row Layer    Maximum-Flux-Residual          L2-NORM 
          0                 1           2             4    7     1       0.7392088731E-01       4    6    1         0.3900850817E+01      0.9451459794E+01
          0                 2           2             4    8     1      -0.8475886026E-01       5    8    1        -0.4637620517E+01      0.1133407966E+02
          0                 3           2             4    6     1       0.1960847918E-01       5    6    1         0.1098353800E+01      0.2656392740E+01
          0                 4           2             4    7     1      -0.9049166489E-02       5    8    1        -0.5200573956E+00      0.1263921441E+01
          0                 5           2             4    7     1      -0.3700909410E-02       4    7    1        -0.2100843869E+00      0.5097686529E+00
          0                 6           2             4    7     1      -0.1512278599E-02       4    7    1        -0.8588865247E-01      0.2055651698E+00
          0                 7           2             4    7     1      -0.6176322355E-03       4    7    1        -0.3509471221E-01      0.8290436741E-01
          0                 8           2             4    7     1      -0.2521236403E-03       4    7    1        -0.1433252562E-01      0.3343892066E-01
          0                 9           1             4    7     1      -0.1028709415E-03       4    7    1        -0.5850453760E-02      0.1348869784E-01
          0                10           1             4    7     1      -0.4195433870E-04       4    7    1        -0.2386998807E-02      0.5441604933E-02

    ------------------------------------------------
       NWT REQUIRED           10 OUTER ITERATIONS 
       AND A TOTAL OF         18 INNER ITERATIONS.
    ------------------------------------------------

 NO OUTPUT CONTROL FOR STRESS PERIOD   44   TIME STEP   25
 
 SOLVING FOR HEAD 
                                                   Max.-Head-Change                         Max.-Flux-Residual
  Residual-Control   Outer-Iter.   Inner-Iter.     Column Row Layer    Maximum-Head-Change  Column Row Layer    Maximum-Flux-Residual          L2-NORM 
          0                 1           2             4    6     1       0.7403130507E-01       4    6    1         0.3913673211E+01      0.9484091847E+01
          0                 2           2             4    8     1      -0.8463984045E-01       5    8    1        -0.4628765696E+01      0.1132034531E+02
          0                 3           2             4    6     1       0.1958754275E-01       5    6    1         0.1098452860E+01      0.2654766684E+01
          0                 4           2             4    7     1      -0.9017659488E-02       5    8    1        -0.5171332640E+00      0.1257786140E+01
          0                 5           2             4    7     1      -0.3687781804E-02       4    7    1        -0.2093517900E+00      0.5072981384E+00
          0                 6           2             4    7     1      -0.1506826427E-02       4    7    1        -0.8558383450E-01      0.2045710829E+00
          0                 7           2             4    7     1      -0.6153717755E-03       4    7    1        -0.3496812496E-01      0.8250426270E-01
          0                 8           2             4    7     1      -0.2511879535E-03       4    7    1        -0.1428004673E-01      0.3327784610E-01
          0                 9           1             4    7     1      -0.1024841947E-03       4    7    1        -0.5828732372E-02      0.1342383785E-01
          0                10           1             4    7     1      -0.4179470160E-04       4    7    1        -0.2378021330E-02      0.5415482313E-02

    ------------------------------------------------
       NWT REQUIRED           10 OUTER ITERATIONS 
       AND A TOTAL OF         18 INNER ITERATIONS.
    ------------------------------------------------

 NO OUTPUT CONTROL FOR STRESS PERIOD   44   TIME STEP   26
 
 SOLVING FOR HEAD 
                                                   Max.-Head-Change                         Max.-Flux-Residual
  Residual-Control   Outer-Iter.   Inner-Iter.     Column Row Layer    Maximum-Head-Change  Column Row Layer    Maximum-Flux-Residual          L2-NORM 
          0                 1           2             4    6     1       0.7424673157E-01       4    6    1         0.3925569004E+01      0.9515191208E+01
          0                 2           2             4    8     1      -0.8452804514E-01       5    8    1        -0.4620574244E+01      0.1130743849E+02
          0                 3           2             4    6     1       0.1956474786E-01       5    6    1         0.1098319823E+01      0.2652855575E+01
          0                 4           2             4    7     1      -0.8985457013E-02       5    8    1        -0.5143026949E+00      0.1251776847E+01
          0                 5           2             4    7     1      -0.3674416650E-02       4    7    1        -0.2086040602E+00      0.5048800385E+00
          0                 6           2             4    7     1      -0.1501288686E-02       4    7    1        -0.8527352457E-01      0.2035978551E+00
          0                 7           2             4    7     1      -0.6130807789E-03       4    7    1        -0.3483955999E-01      0.8211246630E-01
          0                 8           2             4    7     1      -0.2502414931E-03       4    7    1        -0.1422686229E-01      0.3312008353E-01
          0                 9           1             4    7     1      -0.1020937020E-03       4    7    1        -0.5806762185E-02      0.1336029920E-01
          0                10           1             4    7     1      -0.4163378582E-04       4    7    1        -0.2368957385E-02      0.5389887253E-02

    ------------------------------------------------
       NWT REQUIRED           10 OUTER ITERATIONS 
       AND A TOTAL OF         18 INNER ITERATIONS.
    ------------------------------------------------

 NO OUTPUT CONTROL FOR STRESS PERIOD   44   TIME STEP   27
 
 SOLVING FOR HEAD 
                                                   Max.-Head-Change                         Max.-Flux-Residual
  Residual-Control   Outer-Iter.   Inner-Iter.     Column Row Layer    Maximum-Head-Change  Column Row Layer    Maximum-Flux-Residual          L2-NORM 
          0                 1           2             4    6     1       0.7444682070E-01       4    6    1         0.3936616642E+01      0.9544748194E+01
          0                 2           2             4    7     1      -0.8446736791E-01       5    8    1        -0.4612997984E+01      0.1129522740E+02
          0                 3           2             4    6     1       0.1950638977E-01       5    6    1         0.1096083833E+01      0.2646042127E+01
          0                 4           2             4    7     1      -0.8965736139E-02       4    8    1        -0.5123778102E+00      0.1247672146E+01
          0                 5           2             4    7     1      -0.3666168407E-02       4    7    1        -0.2081455722E+00      0.5032282077E+00
          0                 6           2             4    7     1      -0.1497850354E-02       4    7    1        -0.8508198056E-01      0.2029334341E+00
          0                 7           2             4    7     1      -0.6116504672E-03       4    7    1        -0.3475972092E-01      0.8184513908E-01
          0                 8           2             4    7     1      -0.2496476238E-03       4    7    1        -0.1419365286E-01      0.3301249749E-01
          0                 9           1             4    7     1      -0.1018475514E-03       4    7    1        -0.5792974609E-02      0.1331699063E-01
          0                10           1             4    7     1      -0.4153192156E-04       4    7    1        -0.2363243059E-02      0.5372449560E-02

    ------------------------------------------------
       NWT REQUIRED           10 OUTER ITERATIONS 
       AND A TOTAL OF         18 INNER ITERATIONS.
    ------------------------------------------------

 NO OUTPUT CONTROL FOR STRESS PERIOD   44   TIME STEP   28
 
 SOLVING FOR HEAD 
                                                   Max.-Head-Change                         Max.-Flux-Residual
  Residual-Control   Outer-Iter.   Inner-Iter.     Column Row Layer    Maximum-Head-Change  Column Row Layer    Maximum-Flux-Residual          L2-NORM 
          0                 1           2             4    6     1       0.7463375080E-01       4    6    1         0.3946941402E+01      0.9517076194E+01
          0                 2           2             4    7     1      -0.8441128664E-01       5    8    1        -0.4604197553E+01      0.1121931819E+02
          0                 3           2             4    7     1      -0.1869345258E-01       4    7    1        -0.1004606868E+01      0.2423620850E+01
          0                 4           2             4    7     1      -0.2420495342E-01       4    7    1        -0.1300412198E+01      0.3155943130E+01
          0                 5           2             4    7     1      -0.9081243467E-02       4    7    1        -0.4881717975E+00      0.1166155840E+01
          0                 6           2             4    7     1      -0.3404350334E-02       4    7    1        -0.1831039913E+00      0.4309192516E+00
          0                 7           2             4    7     1      -0.1275393651E-02       4    7    1        -0.6863267151E-01      0.1592571753E+00
          0                 8           2             4    7     1      -0.4775185544E-03       4    7    1        -0.2570914082E-01      0.5886531037E-01
          0                 9           2             4    7     1      -0.1786842280E-03       4    7    1        -0.9624596614E-02      0.2176063805E-01
          0                10           1             4    7     1      -0.6682596975E-04       4    7    1        -0.3601054039E-02      0.8045081387E-02

    ------------------------------------------------
       NWT REQUIRED           10 OUTER ITERATIONS 
       AND A TOTAL OF         19 INNER ITERATIONS.
    ------------------------------------------------

 NO OUTPUT CONTROL FOR STRESS PERIOD   44   TIME STEP   29
 
 SOLVING FOR HEAD 
                                                   Max.-Head-Change                         Max.-Flux-Residual
  Residual-Control   Outer-Iter.   Inner-Iter.     Column Row Layer    Maximum-Head-Change  Column Row Layer    Maximum-Flux-Residual          L2-NORM 
          0                 1           2             4    6     1       0.7605716075E-01       4    6    1         0.4023811558E+01      0.9694903032E+01
          0                 2           2             4    7     1      -0.7128204970E-01       5    8    1        -0.3869051137E+01      0.9457601864E+01
          0                 3           2             4    7     1      -0.4306152105E+00       4    7    1        -0.2312776854E+02      0.5660518254E+02
          0                 4           2             4    6     1      -0.4221452540E-01       4    6    1        -0.2299828963E+01      0.5457685385E+01
          0                 5           2             4    6     1       0.2875462712E-02       4    6    1         0.1610323889E+00      0.3821423069E+00
          0                 6           2             4    6     1      -0.1144716694E-03       4    6    1        -0.6589322348E-02      0.1563703694E-01
          0                 7           1             4    6     1       0.1413583519E-05       4    6    1         0.8363054440E-04      0.1984644576E-03

    ------------------------------------------------
       NWT REQUIRED            7 OUTER ITERATIONS 
       AND A TOTAL OF         13 INNER ITERATIONS.
    ------------------------------------------------

 NO OUTPUT CONTROL FOR STRESS PERIOD   44   TIME STEP   30



 STREAM LISTING     PERIOD     44   STEP       30

 LAYER ROW COL. STREAM  RCH.  FLOW INTO     FLOW TO   FLOW OUT OF   OVRLND.     DIRECT     STREAM       STREAM     STREAM     STREAM   STREAMBED  STREAMBED
                SEG.NO.  NO.  STRM. RCH.    AQUIFER    STRM. RCH.    RUNOFF     PRECIP       ET          HEAD       DEPTH      WIDTH   CONDCTNC.   GRADIENT

   1    1    1     1     1    2.7749E+01  2.5751E-01   2.7492E+01  0.000E+00  0.000E+00  0.000E+00  1.09427E+03  1.218E+00  1.357E+01  6.105E-02  1.406E+00
   1    2    2     1     2    2.7492E+01  3.9832E-01   2.7093E+01  0.000E+00  0.000E+00  0.000E+00  1.08927E+03  1.213E+00  1.351E+01  9.454E-02  1.404E+00
   1    3    3     1     3    2.7093E+01  3.3923E-01   2.6754E+01  0.000E+00  0.000E+00  0.000E+00  1.08363E+03  1.208E+00  1.344E+01  8.062E-02  1.403E+00
   1    3    4     1     4    2.6754E+01  3.1200E-01   2.6442E+01  0.000E+00  0.000E+00  0.000E+00  1.07861E+03  1.203E+00  1.337E+01  7.422E-02  1.401E+00
   1    4    5     2     1    2.4442E+01  3.2655E-01   2.4116E+01  0.000E+00  0.000E+00  0.000E+00  1.07312E+03  1.187E+00  1.200E+01  7.800E-02  1.396E+00
   1    5    6     2     2    2.4116E+01  2.5068E-01   2.3865E+01  0.000E+00  0.000E+00  0.000E+00  1.06769E+03  1.178E+00  1.200E+01  6.000E-02  1.393E+00
   1    6    6     2     3    2.3865E+01  2.5024E-01   2.3615E+01  0.000E+00  0.000E+00  0.000E+00  1.06296E+03  1.171E+00  1.200E+01  6.000E-02  1.390E+00
   1    7    6     2     4    2.3615E+01  2.4979E-01   2.3365E+01  0.000E+00  0.000E+00  0.000E+00  1.05824E+03  1.163E+00  1.200E+01  6.000E-02  1.388E+00
   1    8    6     2     5    2.3365E+01  2.4935E-01   2.3115E+01  0.000E+00  0.000E+00  0.000E+00  1.05351E+03  1.156E+00  1.200E+01  6.000E-02  1.385E+00
   1    3    5     3     1    2.0000E+00  2.8252E-01   1.7175E+00  0.000E+00  0.000E+00  0.000E+00  1.07555E+03  1.909E+00  9.636E+00  7.227E-02  1.955E+00
   1    3    6     3     2    1.7175E+00  2.4905E-01   1.4684E+00  0.000E+00  0.000E+00  0.000E+00  1.07264E+03  1.727E+00  8.909E+00  6.682E-02  1.864E+00
   1    3    7     3     3    1.4684E+00  1.9718E-01   1.2712E+00  0.000E+00  0.000E+00  0.000E+00  1.06987E+03  1.555E+00  8.218E+00  5.547E-02  1.777E+00
   1    4    8     3     4    1.2712E+00  2.2567E-01   1.0456E+00  0.000E+00  0.000E+00  0.000E+00  1.06682E+03  1.364E+00  7.455E+00  6.709E-02  1.682E+00
   1    5    8     3     5    1.0456E+00  1.5790E-01   8.8768E-01  0.000E+00  0.000E+00  0.000E+00  1.06362E+03  1.164E+00  6.655E+00  4.991E-02  1.582E+00
   1    6    8     3     6    8.8768E-01  5.5980E-02   8.3170E-01  0.000E+00  0.000E+00  0.000E+00  1.06158E+03  1.036E+00  6.145E+00  1.844E-02  1.518E+00
   1    5   10     4     1    1.0000E+01  9.0919E-02   9.9091E+00  0.000E+00  0.000E+00  0.000E+00  1.07836E+03  6.368E-01  1.000E+01  2.500E-02  1.212E+00
   1    5    9     4     2    9.9091E+00  1.8158E-01   9.7275E+00  0.000E+00  0.000E+00  0.000E+00  1.07154E+03  6.315E-01  1.000E+01  5.000E-02  1.211E+00
   1    6    8     4     3    9.7275E+00  1.2689E-01   9.6006E+00  0.000E+00  0.000E+00  0.000E+00  1.06381E+03  6.256E-01  1.000E+01  3.500E-02  1.209E+00
   1    6    8     5     1    1.0432E+01  2.2686E-01   1.0205E+01  0.000E+00  0.000E+00  0.000E+00  1.05868E+03  6.790E-01  1.542E+01  6.166E-02  1.226E+00
   1    7    7     5     2    1.0205E+01  2.7894E-01   9.9265E+00  0.000E+00  0.000E+00  0.000E+00  1.05417E+03  6.732E-01  1.519E+01  7.594E-02  1.224E+00
   1    8    7     5     3    9.9265E+00  1.9221E-01   9.7343E+00  0.000E+00  0.000E+00  0.000E+00  1.04992E+03  6.676E-01  1.497E+01  5.241E-02  1.223E+00
   1    8    6     5     4    9.7343E+00  1.3577E-01   9.5985E+00  0.000E+00  0.000E+00  0.000E+00  1.04691E+03  6.637E-01  1.482E+01  3.706E-02  1.221E+00
   1    9    6     6     1    9.5985E+00  2.2097E-01   9.3776E+00  0.000E+00  0.000E+00  0.000E+00  1.04341E+03  6.828E-01  1.200E+01  6.000E-02  1.228E+00
   1   10    7     6     2    9.3776E+00  2.2039E-01   9.1572E+00  0.000E+00  0.000E+00  0.000E+00  1.03885E+03  6.732E-01  1.200E+01  6.000E-02  1.224E+00
   1   11    7     6     3    9.1572E+00  2.1981E-01   8.9374E+00  0.000E+00  0.000E+00  0.000E+00  1.03430E+03  6.636E-01  1.200E+01  6.000E-02  1.221E+00
   1   12    7     6     4    8.9374E+00  2.1923E-01   8.7181E+00  0.000E+00  0.000E+00  0.000E+00  1.02974E+03  6.539E-01  1.200E+01  6.000E-02  1.218E+00
   1   13    7     6     5    8.7181E+00 -1.3421E-01   8.8523E+00  0.000E+00  0.000E+00  0.000E+00  1.02656E+03  6.520E-01  1.200E+01  2.400E-01 -1.864E-01
   1   14    9     7     1    1.5000E+02  1.3451E+00   1.4865E+02  0.000E+00  0.000E+00  0.000E+00  1.03987E+03  2.288E+00  5.529E+01  5.593E-01  8.017E-01
   1   13    8     7     2    1.4865E+02  1.8276E+00   1.4683E+02  0.000E+00  0.000E+00  0.000E+00  1.03478E+03  2.279E+00  5.526E+01  6.148E-01  9.909E-01
   1   13    7     7     3    1.4683E+02  1.4350E+00   1.4539E+02  0.000E+00  0.000E+00  0.000E+00  1.02969E+03  2.271E+00  5.522E+01  5.585E-01  8.565E-01
   1   13    6     8     1    1.5424E+02  7.8649E-01   1.5346E+02  0.000E+00  0.000E+00  0.000E+00  1.02472E+03  2.844E+00  4.123E+01  4.202E-01  6.239E-01
   1   13    5     8     2    1.5346E+02  6.1321E-02   1.5340E+02  0.000E+00  0.000E+00  0.000E+00  1.01847E+03  2.841E+00  4.119E+01  4.198E-01  4.870E-02
   1   13    4     8     3    1.5340E+02 -2.8137E+00   1.5621E+02  0.000E+00  0.000E+00  0.000E+00  1.01223E+03  2.850E+00  4.133E+01  4.212E+00 -2.227E-01
   1   13    3     8     4    1.5621E+02 -3.8312E+00   1.6004E+02  0.000E+00  0.000E+00  0.000E+00  1.00600E+03  2.873E+00  4.166E+01  4.245E+00 -3.008E-01
   1   13    2     8     5    1.6004E+02 -2.6472E+00   1.6269E+02  0.000E+00  0.000E+00  0.000E+00  9.99770E+02  2.895E+00  4.198E+01  4.278E+00 -2.063E-01
   1   13    1     8     6    1.6269E+02 -2.0279E+00   1.6472E+02  0.000E+00  0.000E+00  0.000E+00  9.94786E+02  2.911E+00  4.221E+01  2.581E+00 -2.619E-01
   1    8    6     9     1    2.3115E+01  0.0000E+00   2.3115E+01  0.000E+00  0.000E+00  0.000E+00  1.08250E+03  3.746E+00  4.000E+00  0.000E+00  2.249E+00
   1    8    5     9     2    2.3115E+01  0.0000E+00   2.3115E+01  0.000E+00  0.000E+00  0.000E+00  1.08200E+03  3.746E+00  4.000E+00  0.000E+00  2.249E+00





UNSATURATED ZONE PACKAGE VOLUMETRIC BUDGET FOR  TIME STEP    30 STRESS PERIOD   44
  ------------------------------------------------------------------------------



     CUMULATIVE VOLUMES      L**3       RATES FOR THIS TIME STEP      L**3/T
     ------------------                 ------------------------

           IN:                                      IN:
           ---                                      ---
        INFILTRATION =  4922946403.5016          INFILTRATION =         185.4318

          OUT:                                     OUT:
          ----                                     ----
              UZF ET =  1544355079.2977                UZF ET =          60.8175
        UZF RECHARGE =  2927416540.5295          UZF RECHARGE =       0.0000E+00

            IN - OUT =   451174783.6744              IN - OUT =         124.6143

          STORAGE:                                 STORAGE:
          --------                                 --------
      STORAGE CHANGE =   451156896.8390        STORAGE CHANGE =         124.6143

 PERCENT DISCREPANCY IS DIFFERENCE BETWEEN IN-OUT MINUS CHANGE IN STORAGE
 DIVIDED BY THE AVERAGE OF IN AND OUT TIMES 100

 PERCENT DISCREPANCY =           0.00     PERCENT DISCREPANCY =           0.00






1
  VOLUMETRIC BUDGET FOR AGRICULTURAL FIELDS AT  END OF TIME STEP   30, STRESS PERIOD  44
  ------------------------------------------------------------------------------

     CUMULATIVE VOLUMES      L**3       RATES FOR THIS TIME STEP      L**3/T
     ------------------                 ------------------------

           IN:                                      IN:
           ---                                      ---
           AG WELLS      =  3029248256.0000             AG WELLS      =         161.4684
      DIVERSION SEGMENTS =  1797761536.0000        DIVERSION SEGMENTS =          23.1155
           GW IRRIGATION =           0.0000             GW IRRIGATION =           0.0000
           SW IRRIGATION =           0.0000             SW IRRIGATION =           0.0000
        SYSTEM LOSSES GW =           0.0000          SYSTEM LOSSES GW =           0.0000
        SYSTEM LOSSES SW =           0.0000          SYSTEM LOSSES SW =           0.0000

                TOTAL IN =  4827010048.0000                  TOTAL IN =         184.5839

          OUT:                                     OUT:
          ----                                     ----
           AG WELLS      =           0.0000             AG WELLS      =           0.0000
      DIVERSION SEGMENTS =           0.0000        DIVERSION SEGMENTS =           0.0000
           GW IRRIGATION =  3029248256.0000             GW IRRIGATION =         161.4684
           SW IRRIGATION =  1797793792.0000             SW IRRIGATION =          23.1159
        SYSTEM LOSSES GW =           0.0000          SYSTEM LOSSES GW =           0.0000
        SYSTEM LOSSES SW =           0.0000          SYSTEM LOSSES SW =           0.0000

               TOTAL OUT =  4827041792.0000                 TOTAL OUT =         184.5844

                IN - OUT =      -31744.0000                  IN - OUT =      -4.5776E-04

     PERCENT DISCREPANCY =          -0.00         PERCENT DISCREPANCY =          -0.00



1
  VOLUMETRIC BUDGET FOR ENTIRE MODEL AT END OF TIME STEP   30, STRESS PERIOD  44
  ------------------------------------------------------------------------------

     CUMULATIVE VOLUMES      L**3       RATES FOR THIS TIME STEP      L**3/T
     ------------------                 ------------------------

           IN:                                      IN:
           ---                                      ---
             STORAGE     =  3085480192.0000               STORAGE     =         162.5704
       CONSTANT HEAD     =           0.0000         CONSTANT HEAD     =           0.0000
     HEAD DEP BOUNDS     =    32394302.0000       HEAD DEP BOUNDS     =           0.2864
      STREAM LEAKAGE     =  1355393920.0000        STREAM LEAKAGE     =          11.3711
        UZF RECHARGE     =  2927415296.0000          UZF RECHARGE     =           0.0000
               GW ET     =           0.0000                 GW ET     =           0.0000
     SURFACE LEAKAGE     =           0.0000       SURFACE LEAKAGE     =           0.0000
           AG WELLS      =           0.0000             AG WELLS      =           0.0000

                TOTAL IN =  7400683520.0000                  TOTAL IN =         174.2279

          OUT:                                     OUT:
          ----                                     ----
             STORAGE     =  3116022016.0000               STORAGE     =           1.0176
       CONSTANT HEAD     =           0.0000         CONSTANT HEAD     =           0.0000
     HEAD DEP BOUNDS     =    32799934.0000       HEAD DEP BOUNDS     =           0.2877
      STREAM LEAKAGE     =  1221818368.0000        STREAM LEAKAGE     =          11.4541
        UZF RECHARGE     =           0.0000          UZF RECHARGE     =           0.0000
               GW ET     =      831874.7500                 GW ET     =           0.0000
     SURFACE LEAKAGE     =           0.0000       SURFACE LEAKAGE     =           0.0000
           AG WELLS      =  3029248256.0000             AG WELLS      =         161.4684

               TOTAL OUT =  7400720384.0000                 TOTAL OUT =         174.2278

                IN - OUT =      -36864.0000                  IN - OUT =       1.5259E-05

     PERCENT DISCREPANCY =          -0.00         PERCENT DISCREPANCY =           0.00






         TIME SUMMARY AT END OF TIME STEP   30 IN STRESS PERIOD   44
                    SECONDS     MINUTES      HOURS       DAYS        YEARS
                    -----------------------------------------------------------
   TIME STEP LENGTH  87667.      1461.1      24.352      1.0147     2.77799E-03
 STRESS PERIOD TIME 2.63000E+06  43833.      730.56      30.440     8.33397E-02
         TOTAL TIME 1.13175E+08 1.88626E+06  31438.      1309.9      3.5863    
1
1
                            STRESS PERIOD NO.   45, LENGTH =   2630000.    
                            -----------------------------------------------

                              NUMBER OF TIME STEPS =    30

                               MULTIPLIER FOR DELT =     1.000

                            INITIAL TIME STEP SIZE =   87666.66    

 REUSING NON-PARAMETER GHB CELLS FROM LAST STRESS PERIOD

      2 GHB CELLS

 REUSING STREAM SEGMENT DATA FROM LAST STRESS PERIOD



            AREAL INFILTRATION RATE
 READING ON UNIT   19 WITH FORMAT: (FREE)              

            1           2           3           4           5           6           7           8           9          10
 ........................................................................................................................
   1   1.0000E-10  2.0000E-10   0.000       0.000       0.000       0.000       0.000       0.000       0.000       0.000    
   2   2.0000E-10  1.0000E-10  2.0000E-10   0.000       0.000      8.0000E-10  8.0000E-10  5.0000E-10   0.000       0.000    
   3    0.000      5.0000E-10  1.0000E-10  1.0000E-10  8.0000E-10  8.0000E-10  5.0000E-10  5.0000E-10   0.000       0.000    
   4   8.0000E-10  5.0000E-10  1.0000E-10  1.0000E-10  1.0000E-10  1.0000E-10  1.0000E-10  1.0000E-10  2.0000E-10   0.000    
   5   8.0000E-10  5.0000E-10  1.0000E-10  1.0000E-10  1.0000E-10  1.0000E-10  1.0000E-10  1.0000E-10  1.0000E-10  1.0000E-10
   6   8.0000E-10  5.0000E-10  5.0000E-10  2.0000E-10  2.0000E-10  1.0000E-10  1.0000E-10  1.0000E-10  1.0000E-10  5.0000E-10
   7   8.0000E-10  5.0000E-10  5.0000E-10  2.0000E-10  2.0000E-10  1.0000E-10  1.0000E-10  2.0000E-10  2.0000E-10   0.000    
   8    0.000      5.0000E-10  5.0000E-10  2.0000E-10  2.0000E-10  1.0000E-10  1.0000E-10  2.0000E-10  5.0000E-10   0.000    
   9    0.000      5.0000E-10  5.0000E-10  2.0000E-10  2.0000E-10  1.0000E-10  1.0000E-10  2.0000E-10  5.0000E-10   0.000    
  10    0.000      5.0000E-10  5.0000E-10  2.0000E-10  2.0000E-10  1.0000E-10  1.0000E-10  2.0000E-10  5.0000E-10  8.0000E-10
  11    0.000      1.0000E-10  1.0000E-10  1.0000E-10  1.0000E-10  1.0000E-10  1.0000E-10  2.0000E-10  5.0000E-10   0.000    
  12   1.0000E-10  1.0000E-10  1.0000E-10  1.0000E-10  1.0000E-10  1.0000E-10  1.0000E-10  1.0000E-10  2.0000E-10   0.000    
  13   1.0000E-10  1.0000E-10  2.0000E-10  2.0000E-10  2.0000E-10  2.0000E-10  2.0000E-10  1.0000E-10  1.0000E-10   0.000    
  14    0.000      2.0000E-10  5.0000E-10  5.0000E-10  5.0000E-10  5.0000E-10  5.0000E-10  2.0000E-10  1.0000E-10   0.000    
  15    0.000       0.000      8.0000E-10  8.0000E-10  8.0000E-10  8.0000E-10   0.000       0.000       0.000       0.000    

                  ET RATE =  3.250000E-07

 USING ET EXTINCTION DEPTH FROM PREVIOUS STRESS PERIOD. CURRENT PERIOD IS:      45

 USING EXTINCTION WATER CONTENT FROM PREVIOUS STRESS PERIOD. CURRENT PERIOD IS:      45

 USING AIR ENTRY PRESSURE FROM PREVIOUS STRESS PERIOD. CURRENT PERIOD IS:      45

 USING ROOT PRESSURE HEAD FROM PREVIOUS STRESS PERIOD. CURRENT PERIOD IS:      45

 USING ROOT ACTIVITY FROM PREVIOUS STRESS PERIOD. CURRENT PERIOD IS:      45

 PROCESSING AG STRESS PERIOD DATA

 READING AG STRESS PERIOD DATA

 READING IRRIGATION SEGMENT

 READING IRRIGATION WELL

 READING SUPPLEMENTAL WELL

 END PROCESSING AG STRESS PERIOD DATA OPTIONS
 
 SOLVING FOR HEAD 
                                                   Max.-Head-Change                         Max.-Flux-Residual
  Residual-Control   Outer-Iter.   Inner-Iter.     Column Row Layer    Maximum-Head-Change  Column Row Layer    Maximum-Flux-Residual          L2-NORM 
          0                 1           2             5    6     1       0.1831411117E-01       5    6    1         0.9954553808E+00      0.1966972668E+01
          0                 2           2             4    7     1      -0.8162669064E-01       5    6    1        -0.4452099667E+01      0.1082674693E+02
          0                 3           2             4    7     1       0.5558162198E-02       5    6    1         0.3115892546E+00      0.7577645727E+00
          0                 4           2             4    7     1      -0.2211646457E-03       5    6    1        -0.1274009247E-01      0.3098987360E-01
          0                 5           1             4    7     1       0.2727055842E-05       5    6    1         0.1611889918E-03      0.3933155990E-03

    ------------------------------------------------
       NWT REQUIRED            5 OUTER ITERATIONS 
       AND A TOTAL OF          9 INNER ITERATIONS.
    ------------------------------------------------

 NO OUTPUT CONTROL FOR STRESS PERIOD   45   TIME STEP    1
 
 SOLVING FOR HEAD 
                                                   Max.-Head-Change                         Max.-Flux-Residual
  Residual-Control   Outer-Iter.   Inner-Iter.     Column Row Layer    Maximum-Head-Change  Column Row Layer    Maximum-Flux-Residual          L2-NORM 
          0                 1           2             5    6     1       0.1977039737E-01       5    6    1         0.1074930968E+01      0.2278275686E+01
          0                 2           2             4    7     1      -0.7237956989E-01       5    6    1        -0.3960076054E+01      0.9667380380E+01
          0                 3           2             4    7     1      -0.1786179196E+01       4    7    1        -0.9587557602E+02      0.2348389915E+03
          0                 4           2             4    7     1       0.1216310381E+00       5    8    1         0.6774993340E+01      0.1646248909E+02
          0                 5           2             4    7     1      -0.4841046963E-02       5    8    1        -0.2770665942E+00      0.6734640254E+00
          0                 6           1             4    7     1       0.5973638383E-04       5    8    1         0.3506997619E-02      0.8568347187E-02

    ------------------------------------------------
       NWT REQUIRED            6 OUTER ITERATIONS 
       AND A TOTAL OF         11 INNER ITERATIONS.
    ------------------------------------------------

 NO OUTPUT CONTROL FOR STRESS PERIOD   45   TIME STEP    2
 
 SOLVING FOR HEAD 
                                                   Max.-Head-Change                         Max.-Flux-Residual
  Residual-Control   Outer-Iter.   Inner-Iter.     Column Row Layer    Maximum-Head-Change  Column Row Layer    Maximum-Flux-Residual          L2-NORM 
          0                 1           2             5    8     1       0.7084424009E-01       5    8    1         0.3902135602E+01      0.8155867475E+01
          0                 2           2             5    6     1      -0.9205055143E-01       5    8    1        -0.5075141229E+01      0.1216082138E+02
          0                 3           2             4    7     1       0.7587684173E-01       5    8    1         0.4207837463E+01      0.1028557179E+02
          0                 4           2             4    7     1      -0.8562471852E-01       5    8    1        -0.4856987504E+01      0.1189627701E+02
          0                 5           2             4    7     1       0.1055745870E-02       4    7    1         0.6153441629E-01      0.1507676818E+00
          0                 6           1             4    7     1       0.1552709350E-04       5    8    1         0.9068764232E-03      0.2223622708E-02

    ------------------------------------------------
       NWT REQUIRED            6 OUTER ITERATIONS 
       AND A TOTAL OF         11 INNER ITERATIONS.
    ------------------------------------------------

 NO OUTPUT CONTROL FOR STRESS PERIOD   45   TIME STEP    3
 
 SOLVING FOR HEAD 
                                                   Max.-Head-Change                         Max.-Flux-Residual
  Residual-Control   Outer-Iter.   Inner-Iter.     Column Row Layer    Maximum-Head-Change  Column Row Layer    Maximum-Flux-Residual          L2-NORM 
          0                 1           2             5    8     1       0.6989465613E-01       5    8    1         0.3846493022E+01      0.8120782596E+01
          0                 2           2             5    6     1      -0.7684315235E-01       5    8    1        -0.4237227151E+01      0.1013589365E+02
          0                 3           2             4    7     1      -0.1786131272E+01       4    7    1        -0.9587148349E+02      0.2348067936E+03
          0                 4           2             4    7     1       0.1216281937E+00       5    8    1         0.6710989185E+01      0.1643857935E+02
          0                 5           2             4    7     1      -0.4840933100E-02       5    8    1        -0.2746015658E+00      0.6726250799E+00
          0                 6           1             4    7     1       0.5973498106E-04       5    8    1         0.3483277766E-02      0.8532326908E-02

    ------------------------------------------------
       NWT REQUIRED            6 OUTER ITERATIONS 
       AND A TOTAL OF         11 INNER ITERATIONS.
    ------------------------------------------------

 NO OUTPUT CONTROL FOR STRESS PERIOD   45   TIME STEP    4
 
 SOLVING FOR HEAD 
                                                   Max.-Head-Change                         Max.-Flux-Residual
  Residual-Control   Outer-Iter.   Inner-Iter.     Column Row Layer    Maximum-Head-Change  Column Row Layer    Maximum-Flux-Residual          L2-NORM 
          0                 1           2             5    8     1       0.1202367134E+00       5    8    1         0.6622231436E+01      0.1400826791E+02
          0                 2           2             5    8     1      -0.9676837488E-01       5    8    1        -0.5347140163E+01      0.1262473660E+02
          0                 3           2             4    7     1       0.7596263539E-01       5    8    1         0.4226877338E+01      0.1031680490E+02
          0                 4           2             4    7     1      -0.8562982952E-01       5    8    1        -0.4857773965E+01      0.1189756045E+02
          0                 5           2             4    7     1       0.1055808927E-02       4    7    1         0.6153672221E-01      0.1507819166E+00
          0                 6           1             4    7     1       0.1552802110E-04       5    8    1         0.9070143171E-03      0.2223794337E-02

    ------------------------------------------------
       NWT REQUIRED            6 OUTER ITERATIONS 
       AND A TOTAL OF         11 INNER ITERATIONS.
    ------------------------------------------------

 NO OUTPUT CONTROL FOR STRESS PERIOD   45   TIME STEP    5
 
 SOLVING FOR HEAD 
                                                   Max.-Head-Change                         Max.-Flux-Residual
  Residual-Control   Outer-Iter.   Inner-Iter.     Column Row Layer    Maximum-Head-Change  Column Row Layer    Maximum-Flux-Residual          L2-NORM 
          0                 1           2             5    8     1       0.1165441399E+00       5    8    1         0.6413215099E+01      0.1369833213E+02
          0                 2           2             5    8     1      -0.8129478922E-01       5    8    1        -0.4493889646E+01      0.1058537027E+02
          0                 3           2             4    7     1      -0.1786079940E+01       4    7    1        -0.9586685878E+02      0.2347767687E+03
          0                 4           2             4    7     1       0.1216246753E+00       4    7    1         0.6710593409E+01      0.1643648589E+02
          0                 5           2             4    7     1      -0.4840793169E-02       5    8    1        -0.2745509867E+00      0.6725401531E+00
          0                 6           1             4    7     1       0.5973325400E-04       5    8    1         0.3482641558E-02      0.8531263804E-02

    ------------------------------------------------
       NWT REQUIRED            6 OUTER ITERATIONS 
       AND A TOTAL OF         11 INNER ITERATIONS.
    ------------------------------------------------

 NO OUTPUT CONTROL FOR STRESS PERIOD   45   TIME STEP    6
 
 SOLVING FOR HEAD 
                                                   Max.-Head-Change                         Max.-Flux-Residual
  Residual-Control   Outer-Iter.   Inner-Iter.     Column Row Layer    Maximum-Head-Change  Column Row Layer    Maximum-Flux-Residual          L2-NORM 
          0                 1           2             5    8     1       0.1643351573E+00       5    8    1         0.9046378223E+01      0.1934775978E+02
          0                 2           2             5    8     1      -0.1010584239E+00       5    8    1        -0.5589540551E+01      0.1306403860E+02
          0                 3           2             4    7     1       0.7605647363E-01       5    8    1         0.4243845409E+01      0.1034595743E+02
          0                 4           2             4    7     1      -0.8563551789E-01       5    8    1        -0.4858474674E+01      0.1189875612E+02
          0                 5           2             4    7     1       0.1055879095E-02       4    7    1         0.6153927476E-01      0.1507952791E+00
          0                 6           1             4    7     1       0.1552905310E-04       5    8    1         0.9071372913E-03      0.2223957596E-02

    ------------------------------------------------
       NWT REQUIRED            6 OUTER ITERATIONS 
       AND A TOTAL OF         11 INNER ITERATIONS.
    ------------------------------------------------

 NO OUTPUT CONTROL FOR STRESS PERIOD   45   TIME STEP    7
 
 SOLVING FOR HEAD 
                                                   Max.-Head-Change                         Max.-Flux-Residual
  Residual-Control   Outer-Iter.   Inner-Iter.     Column Row Layer    Maximum-Head-Change  Column Row Layer    Maximum-Flux-Residual          L2-NORM 
          0                 1           2             5    8     1       0.1582682191E+00       5    8    1         0.8704789989E+01      0.1879746276E+02
          0                 2           2             5    8     1      -0.8535377863E-01       5    8    1        -0.4723034181E+01      0.1101170521E+02
          0                 3           2             4    7     1      -0.1786026559E+01       4    7    1        -0.9586180559E+02      0.2347487684E+03
          0                 4           2             4    7     1       0.1216210199E+00       4    7    1         0.6710239530E+01      0.1643453275E+02
          0                 5           2             4    7     1      -0.4840647775E-02       4    7    1        -0.2745239262E+00      0.6724607931E+00
          0                 6           1             4    7     1       0.5973145950E-04       5    8    1         0.3482073072E-02      0.8530257871E-02

    ------------------------------------------------
       NWT REQUIRED            6 OUTER ITERATIONS 
       AND A TOTAL OF         11 INNER ITERATIONS.
    ------------------------------------------------

 NO OUTPUT CONTROL FOR STRESS PERIOD   45   TIME STEP    8
 
 SOLVING FOR HEAD 
                                                   Max.-Head-Change                         Max.-Flux-Residual
  Residual-Control   Outer-Iter.   Inner-Iter.     Column Row Layer    Maximum-Head-Change  Column Row Layer    Maximum-Flux-Residual          L2-NORM 
          0                 1           2             5    8     1       0.2038473571E+00       5    8    1         0.1121450613E+02      0.2422010538E+02
          0                 2           2             5    8     1      -0.1049023322E+00       5    8    1        -0.5806336812E+01      0.1347823369E+02
          0                 3           2             4    7     1       0.7615666538E-01       5    8    1         0.4259021259E+01      0.1037320274E+02
          0                 4           2             4    7     1      -0.8564167607E-01       5    8    1        -0.4859101209E+01      0.1189987195E+02
          0                 5           2             4    7     1       0.1055955049E-02       4    7    1         0.6154202369E-01      0.1508078444E+00
          0                 6           1             4    7     1       0.1553017024E-04       5    8    1         0.9072473338E-03      0.2224111348E-02

    ------------------------------------------------
       NWT REQUIRED            6 OUTER ITERATIONS 
       AND A TOTAL OF         11 INNER ITERATIONS.
    ------------------------------------------------

 NO OUTPUT CONTROL FOR STRESS PERIOD   45   TIME STEP    9
 
 SOLVING FOR HEAD 
                                                   Max.-Head-Change                         Max.-Flux-Residual
  Residual-Control   Outer-Iter.   Inner-Iter.     Column Row Layer    Maximum-Head-Change  Column Row Layer    Maximum-Flux-Residual          L2-NORM 
          0                 1           2             5    8     1       0.1957192758E+00       5    8    1         0.1075800142E+02      0.2346023471E+02
          0                 2           2             5    8     1      -0.8899710456E-01       5    8    1        -0.4928340337E+01      0.1141408181E+02
          0                 3           2             4    7     1      -0.1785971898E+01       4    7    1        -0.9585641453E+02      0.2347226115E+03
          0                 4           2             4    7     1       0.1216172796E+00       4    7    1         0.6709862090E+01      0.1643270794E+02
          0                 5           2             4    7     1      -0.4840498989E-02       4    7    1        -0.2745085331E+00      0.6723866748E+00
          0                 6           1             4    7     1       0.5972962367E-04       5    8    1         0.3481563240E-02      0.8529327067E-02

    ------------------------------------------------
       NWT REQUIRED            6 OUTER ITERATIONS 
       AND A TOTAL OF         11 INNER ITERATIONS.
    ------------------------------------------------

 NO OUTPUT CONTROL FOR STRESS PERIOD   45   TIME STEP   10
 
 SOLVING FOR HEAD 
                                                   Max.-Head-Change                         Max.-Flux-Residual
  Residual-Control   Outer-Iter.   Inner-Iter.     Column Row Layer    Maximum-Head-Change  Column Row Layer    Maximum-Flux-Residual          L2-NORM 
          0                 1           2             5    8     1       0.2393745933E+00       5    8    1         0.1316049515E+02      0.2867698988E+02
          0                 2           2             5    8     1      -0.1083586179E+00       5    8    1        -0.6000917908E+01      0.1386770235E+02
          0                 3           2             4    7     1       0.7626174021E-01       5    8    1         0.4272642096E+01      0.1039869851E+02
          0                 4           2             4    7     1      -0.8564821014E-01       5    8    1        -0.4859663392E+01      0.1190091494E+02
          0                 5           2             4    7     1       0.1056035631E-02       4    7    1         0.6154492506E-01      0.1508196699E+00
          0                 6           1             4    7     1       0.1553135514E-04       5    8    1         0.9073461283E-03      0.2224257583E-02

    ------------------------------------------------
       NWT REQUIRED            6 OUTER ITERATIONS 
       AND A TOTAL OF         11 INNER ITERATIONS.
    ------------------------------------------------

 NO OUTPUT CONTROL FOR STRESS PERIOD   45   TIME STEP   11
 
 SOLVING FOR HEAD 
                                                   Max.-Head-Change                         Max.-Flux-Residual
  Residual-Control   Outer-Iter.   Inner-Iter.     Column Row Layer    Maximum-Head-Change  Column Row Layer    Maximum-Flux-Residual          L2-NORM 
          0                 1           2             5    8     1       0.2294525818E+00       5    8    1         0.1260411644E+02      0.2773357813E+02
          0                 2           2             5    8     1      -0.9227879820E-01       5    8    1        -0.5112935663E+01      0.1179273611E+02
          0                 3           2             4    7     1      -0.1785916616E+01       4    7    1        -0.9585076469E+02      0.2346981355E+03
          0                 4           2             4    7     1       0.1216134991E+00       4    7    1         0.6709466610E+01      0.1643099991E+02
          0                 5           2             4    7     1      -0.4840348594E-02       4    7    1        -0.2744923991E+00      0.6723172603E+00
          0                 6           1             4    7     1       0.5972776746E-04       4    7    1         0.3481293270E-02      0.8528455105E-02

    ------------------------------------------------
       NWT REQUIRED            6 OUTER ITERATIONS 
       AND A TOTAL OF         11 INNER ITERATIONS.
    ------------------------------------------------

 NO OUTPUT CONTROL FOR STRESS PERIOD   45   TIME STEP   12
 
 SOLVING FOR HEAD 
                                                   Max.-Head-Change                         Max.-Flux-Residual
  Residual-Control   Outer-Iter.   Inner-Iter.     Column Row Layer    Maximum-Head-Change  Column Row Layer    Maximum-Flux-Residual          L2-NORM 
          0                 1           2             5    8     1       0.2714298565E+00       5    8    1         0.1491321359E+02      0.3276506855E+02
          0                 2           2             5    8     1      -0.1114771946E+00       5    8    1        -0.6176171334E+01      0.1423342877E+02
          0                 3           2             4    7     1       0.7637042406E-01       5    8    1         0.4284910030E+01      0.1042258944E+02
          0                 4           2             4    7     1      -0.8565503808E-01       5    8    1        -0.4860169593E+01      0.1190189143E+02
          0                 5           2             4    7     1       0.1056119832E-02       4    7    1         0.6154794080E-01      0.1508308118E+00
          0                 6           1             4    7     1       0.1553259315E-04       5    8    1         0.9074351717E-03      0.2224393967E-02

    ------------------------------------------------
       NWT REQUIRED            6 OUTER ITERATIONS 
       AND A TOTAL OF         11 INNER ITERATIONS.
    ------------------------------------------------

 NO OUTPUT CONTROL FOR STRESS PERIOD   45   TIME STEP   13
 
 SOLVING FOR HEAD 
                                                   Max.-Head-Change                         Max.-Flux-Residual
  Residual-Control   Outer-Iter.   Inner-Iter.     Column Row Layer    Maximum-Head-Change  Column Row Layer    Maximum-Flux-Residual          L2-NORM 
          0                 1           2             5    8     1       0.3363026312E+00       5    8    1         0.1848657775E+02      0.3377172667E+02
          0                 2           2             5    6     1      -0.9480775213E-01       5    6    1        -0.5244670223E+01      0.1102752126E+02
          0                 3           2             4    7     1      -0.1785862062E+01       4    7    1        -0.9584492507E+02      0.2346870528E+03
          0                 4           2             4    7     1       0.1215227247E+00       4    7    1         0.6709058004E+01      0.1582411772E+02
          0                 5           2             5    8     1       0.5814072439E-02       5    8    1         0.3473776949E+00      0.7067599053E+00
          0                 6           1             5    8     1      -0.2314061588E-03       5    8    1        -0.1398442133E-01      0.1608012231E-01
          0                 7           1             5    8     1       0.2855452414E-05       5    8    1         0.1745646944E-03      0.2072890832E-03

    ------------------------------------------------
       NWT REQUIRED            7 OUTER ITERATIONS 
       AND A TOTAL OF         12 INNER ITERATIONS.
    ------------------------------------------------

 NO OUTPUT CONTROL FOR STRESS PERIOD   45   TIME STEP   14
 
 SOLVING FOR HEAD 
                                                   Max.-Head-Change                         Max.-Flux-Residual
  Residual-Control   Outer-Iter.   Inner-Iter.     Column Row Layer    Maximum-Head-Change  Column Row Layer    Maximum-Flux-Residual          L2-NORM 
          0                 1           2             5    8     1       0.3624642132E+00       5    8    1         0.1991551450E+02      0.3819108454E+02
          0                 2           2             5    8     1       0.1209949514E+00       5    8    1         0.6825825641E+01      0.1357019380E+02
          0                 3           2             5    8     1       0.1414923631E+00       5    8    1         0.7681411442E+01      0.1187896327E+02
          0                 4           2             4    7     1      -0.8561582863E-01       4    6    1        -0.4859328478E+01      0.1037046518E+02
          0                 5           2             5    6     1      -0.2134669203E-01       5    6    1        -0.1281168398E+01      0.1302334607E+01
          0                 6           2             5    6     1      -0.7210815327E-02       5    6    1        -0.4321130871E+00      0.4473775870E+00
          0                 7           2             5    6     1      -0.2435849928E-02       5    6    1        -0.1459456291E+00      0.1610133828E+00
          0                 8           2             5    6     1      -0.8228972392E-03       5    6    1        -0.4929873970E-01      0.6343108590E-01
          0                 9           2             5    8     1      -0.4129652448E-03       5    8    1        -0.2342024403E-01      0.2873808614E-01
          0                10           1             5    8     1      -0.2422719328E-03       5    8    1        -0.1374079425E-01      0.1484833445E-01
                                                   Max.-Head-Change                         Max.-Flux-Residual
  Residual-Control   Outer-Iter.   Inner-Iter.     Column Row Layer    Maximum-Head-Change  Column Row Layer    Maximum-Flux-Residual          L2-NORM 
          0                11           1             5    8     1      -0.1421255668E-03       5    8    1        -0.8061149313E-02      0.8282449933E-02
          0                12           1             5    8     1      -0.8337354920E-04       5    8    1        -0.4728904696E-02      0.4772443564E-02

    ------------------------------------------------
       NWT REQUIRED           12 OUTER ITERATIONS 
       AND A TOTAL OF         21 INNER ITERATIONS.
    ------------------------------------------------

 NO OUTPUT CONTROL FOR STRESS PERIOD   45   TIME STEP   15
 
 SOLVING FOR HEAD 
                                                   Max.-Head-Change                         Max.-Flux-Residual
  Residual-Control   Outer-Iter.   Inner-Iter.     Column Row Layer    Maximum-Head-Change  Column Row Layer    Maximum-Flux-Residual          L2-NORM 
          0                 1           2             5    8     1       0.1298511359E+01       5    8    1         0.7143473877E+02      0.7980233849E+02
          0                 2           2             5    8     1       0.2965048039E+00       5    8    1         0.1626940904E+02      0.1938469501E+02
          0                 3           2             5    7     1      -0.1792563197E+01       5    7    1        -0.9736025426E+02      0.2310596432E+03
          0                 4           2             5    8     1      -0.5064276215E+00       5    8    1        -0.2853389676E+02      0.3646196285E+02
          0                 5           2             5    8     1      -0.1520326757E+00       5    8    1        -0.8640721196E+01      0.8771355185E+01
          0                 6           2             5    8     1      -0.4563903974E-01       5    8    1        -0.2588072101E+01      0.2588846312E+01
          0                 7           2             5    8     1      -0.1369995409E-01       5    8    1        -0.7770988686E+00      0.7771044619E+00
          0                 8           1             5    8     1      -0.4112352506E-02       5    8    1        -0.2332584190E+00      0.2332605062E+00
          0                 9           1             5    8     1      -0.1234387469E-02       5    8    1        -0.7001553353E-01      0.7001615381E-01
          0                10           1             5    8     1      -0.3705126446E-03       5    8    1        -0.2101559966E-01      0.2101578596E-01
                                                   Max.-Head-Change                         Max.-Flux-Residual
  Residual-Control   Outer-Iter.   Inner-Iter.     Column Row Layer    Maximum-Head-Change  Column Row Layer    Maximum-Flux-Residual          L2-NORM 
          0                11           1             5    8     1      -0.1112103090E-03       5    8    1        -0.6307826209E-02      0.6307882147E-02
          0                12           1             5    8     1      -0.3337932723E-04       5    8    1        -0.1893250969E-02      0.1893267826E-02

    ------------------------------------------------
       NWT REQUIRED           12 OUTER ITERATIONS 
       AND A TOTAL OF         19 INNER ITERATIONS.
    ------------------------------------------------

 NO OUTPUT CONTROL FOR STRESS PERIOD   45   TIME STEP   16
 
 SOLVING FOR HEAD 
                                                   Max.-Head-Change                         Max.-Flux-Residual
  Residual-Control   Outer-Iter.   Inner-Iter.     Column Row Layer    Maximum-Head-Change  Column Row Layer    Maximum-Flux-Residual          L2-NORM 
          0                 1           2             5    6     1       0.1248146158E+01       5    6    1         0.6806729995E+02      0.1113595364E+03
          0                 2           2             5    6     1       0.5572417126E+00       5    6    1         0.3064992302E+02      0.4029086974E+02
          0                 3           2             5    8     1       0.2844751041E+00       5    8    1         0.1548893414E+02      0.2303643125E+02
          0                 4           2             4    7     1      -0.8430610492E-01       4    6    1        -0.4848652566E+01      0.8960088184E+01
          0                 5           2             5    8     1       0.4413046690E-01       5    8    1         0.2458470111E+01      0.2717555447E+01
          0                 6           2             5    8     1       0.2522447396E-01       5    8    1         0.1398688408E+01      0.1437806366E+01
          0                 7           2             5    8     1       0.1446244325E-01       5    8    1         0.7999353326E+00      0.8050837220E+00
          0                 8           2             5    8     1       0.8305648195E-02       5    8    1         0.4587835657E+00      0.4593004510E+00
          0                 9           1             5    8     1       0.4774016130E-02       5    8    1         0.2635182557E+00      0.2635464580E+00
          0                10           1             5    8     1       0.2745318952E-02       5    8    1         0.1514790237E+00      0.1514918574E+00
                                                   Max.-Head-Change                         Max.-Flux-Residual
  Residual-Control   Outer-Iter.   Inner-Iter.     Column Row Layer    Maximum-Head-Change  Column Row Layer    Maximum-Flux-Residual          L2-NORM 
          0                11           1             5    8     1       0.1579093329E-02       5    8    1         0.8711108549E-01      0.8713178374E-01
          0                12           1             5    8     1       0.9084111353E-03       5    8    1         0.5010662780E-01      0.5012544606E-01
          0                13           1             5    8     1       0.5226255558E-03       5    8    1         0.2882528655E-01      0.2883881807E-01
          0                14           1             5    8     1       0.3006891022E-03       5    8    1         0.1658379698E-01      0.1659254157E-01
          0                15           1             5    8     1       0.1730036740E-03       5    8    1         0.9541402777E-02      0.9546759369E-02
          0                16           1             5    8     1       0.9954029289E-04       5    8    1         0.5489724530E-02      0.5492914410E-02

    ------------------------------------------------
       NWT REQUIRED           16 OUTER ITERATIONS 
       AND A TOTAL OF         24 INNER ITERATIONS.
    ------------------------------------------------

 NO OUTPUT CONTROL FOR STRESS PERIOD   45   TIME STEP   17
 
 SOLVING FOR HEAD 
                                                   Max.-Head-Change                         Max.-Flux-Residual
  Residual-Control   Outer-Iter.   Inner-Iter.     Column Row Layer    Maximum-Head-Change  Column Row Layer    Maximum-Flux-Residual          L2-NORM 
          0                 1           2             4    6     1       0.1547473212E+01       4    6    1         0.8366080469E+02      0.1198106515E+03
          0                 2           2             4    6     1       0.3768491158E+00       4    6    1         0.2027689445E+02      0.3536970922E+02
          0                 3           2             4    7     1      -0.1741819589E+01       4    7    1        -0.9369657717E+02      0.2205707808E+03
          0                 4           2             4    8     1      -0.9480101224E+00       4    8    1        -0.5206776735E+02      0.8504566900E+02
          0                 5           2             5    8     1      -0.1624942976E+00       5    8    1        -0.9130119790E+01      0.1780161551E+02
          0                 6           2             4    6     1      -0.4943670786E-01       4    6    1        -0.2778066922E+01      0.4016430561E+01
          0                 7           2             4    6     1      -0.2311910735E-01       4    6    1        -0.1295404598E+01      0.1539009429E+01
          0                 8           2             4    6     1      -0.1374633914E-01       4    6    1        -0.7704276940E+00      0.8097547022E+00
          0                 9           2             4    6     1      -0.8173344068E-02       4    6    1        -0.4580768678E+00      0.4641482446E+00
          0                10           2             4    6     1      -0.4859700541E-02       4    6    1        -0.2723605411E+00      0.2732854727E+00
                                                   Max.-Head-Change                         Max.-Flux-Residual
  Residual-Control   Outer-Iter.   Inner-Iter.     Column Row Layer    Maximum-Head-Change  Column Row Layer    Maximum-Flux-Residual          L2-NORM 
          0                11           2             4    6     1      -0.2889457857E-02       4    6    1        -0.1619373440E+00      0.1620779443E+00
          0                12           2             4    6     1      -0.1717989122E-02       4    6    1        -0.9628242010E-01      0.9630389269E-01
          0                13           2             4    6     1      -0.1021460719E-02       4    6    1        -0.5724587410E-01      0.5724922251E-01
          0                14           2             4    6     1      -0.6073235997E-03       4    6    1        -0.3403600749E-01      0.3403657044E-01
          0                15           2             4    6     1      -0.3610903451E-03       4    6    1        -0.2023626058E-01      0.2023637870E-01
          0                16           2             4    6     1      -0.2146885230E-03       4    6    1        -0.1203148269E-01      0.1203152004E-01
          0                17           2             4    6     1      -0.1276435908E-03       4    6    1        -0.7153280798E-02      0.7153297996E-02
          0                18           1             4    6     1      -0.7589032815E-04       4    6    1        -0.4252933878E-02      0.4252943333E-02

    ------------------------------------------------
       NWT REQUIRED           18 OUTER ITERATIONS 
       AND A TOTAL OF         35 INNER ITERATIONS.
    ------------------------------------------------

 NO OUTPUT CONTROL FOR STRESS PERIOD   45   TIME STEP   18
 
 SOLVING FOR HEAD 
                                                   Max.-Head-Change                         Max.-Flux-Residual
  Residual-Control   Outer-Iter.   Inner-Iter.     Column Row Layer    Maximum-Head-Change  Column Row Layer    Maximum-Flux-Residual          L2-NORM 
          0                 1           2             4    8     1       0.1444668791E+01       4    8    1         0.7749518096E+02      0.1419967826E+03
          0                 2           2             5    6     1       0.4372596953E+00       5    6    1         0.2378394412E+02      0.4395974839E+02
          0                 3           2             5    8     1       0.3178009234E+00       5    8    1         0.1725320772E+02      0.2701526879E+02
          0                 4           2             5    8     1       0.9738841254E-01       5    8    1         0.5427882837E+01      0.7341904500E+01
          0                 5           2             5    8     1       0.5565416708E-01       5    8    1         0.3086461541E+01      0.3545238423E+01
          0                 6           2             5    8     1       0.3191039068E-01       5    8    1         0.1764898599E+01      0.1913555045E+01
          0                 7           2             5    8     1       0.1832905545E-01       5    8    1         0.1012277207E+01      0.1080265619E+01
          0                 8           2             5    8     1       0.1053808535E-01       5    8    1         0.5815470424E+00      0.6189360956E+00
          0                 9           2             5    8     1       0.6061786088E-02       5    8    1         0.3343762404E+00      0.3562631574E+00
          0                10           2             5    8     1       0.3487874521E-02       5    8    1         0.1923481090E+00      0.2053824158E+00
                                                   Max.-Head-Change                         Max.-Flux-Residual
  Residual-Control   Outer-Iter.   Inner-Iter.     Column Row Layer    Maximum-Head-Change  Column Row Layer    Maximum-Flux-Residual          L2-NORM 
          0                11           1             5    8     1       0.2007202245E-02       5    8    1         0.1106766382E+00      0.1184691685E+00
          0                12           1             5    8     1       0.1155214237E-02       5    8    1         0.6369285964E-01      0.6835365516E-01
          0                13           1             5    8     1       0.6649037391E-03       5    8    1         0.3665766546E-01      0.3944457088E-01
          0                14           1             5    8     1       0.3827108015E-03       5    8    1         0.2109903833E-01      0.2276487963E-01
          0                15           1             5    8     1       0.2202892208E-03       5    8    1         0.1214438804E-01      0.1313983132E-01
          0                16           1             5    8     1       0.1268012417E-03       5    8    1         0.6990349112E-02      0.7585044671E-02
          0                17           1             5    8     1       0.7298942106E-04       5    8    1         0.4023737537E-02      0.4378947096E-02

    ------------------------------------------------
       NWT REQUIRED           17 OUTER ITERATIONS 
       AND A TOTAL OF         27 INNER ITERATIONS.
    ------------------------------------------------

 NO OUTPUT CONTROL FOR STRESS PERIOD   45   TIME STEP   19
 
 SOLVING FOR HEAD 
                                                   Max.-Head-Change                         Max.-Flux-Residual
  Residual-Control   Outer-Iter.   Inner-Iter.     Column Row Layer    Maximum-Head-Change  Column Row Layer    Maximum-Flux-Residual          L2-NORM 
          0                 1           2             4    6     1       0.2045713898E+01       4    6    1         0.1102719315E+03      0.1514712135E+03
          0                 2           2             4    6     1       0.5233916096E+00       4    6    1         0.2807819856E+02      0.4598610793E+02
          0                 3           2             5    8     1      -0.1693270593E+01       5    8    1        -0.9351551877E+02      0.2163918277E+03
          0                 4           2             4    8     1      -0.9267312076E+00       4    8    1        -0.5088458732E+02      0.9473453185E+02
          0                 5           2             4    8     1      -0.3990952665E+00       4    8    1        -0.2200612198E+02      0.2755405106E+02
          0                 6           2             4    7     1      -0.5497789360E-01       4    7    1        -0.3051645137E+01      0.5246324740E+01
          0                 7           2             4    7     1      -0.1706356799E-01       4    7    1        -0.9412089738E+00      0.1532897965E+01
          0                 8           2             4    7     1      -0.5295881824E-02       4    7    1        -0.2923472800E+00      0.4708365257E+00
          0                 9           2             4    7     1      -0.1643584796E-02       4    7    1        -0.9072773639E-01      0.1447194960E+00
          0                10           2             4    7     1      -0.5100722694E-03       4    7    1        -0.2815666755E-01      0.4450180078E-01
                                                   Max.-Head-Change                         Max.-Flux-Residual
  Residual-Control   Outer-Iter.   Inner-Iter.     Column Row Layer    Maximum-Head-Change  Column Row Layer    Maximum-Flux-Residual          L2-NORM 
          0                11           2             4    7     1      -0.1582914137E-03       4    7    1        -0.8737911679E-02      0.1369006462E-01
          0                12           1             4    7     1      -0.4912123767E-04       4    7    1        -0.2711565792E-02      0.4213134359E-02

    ------------------------------------------------
       NWT REQUIRED           12 OUTER ITERATIONS 
       AND A TOTAL OF         23 INNER ITERATIONS.
    ------------------------------------------------

 NO OUTPUT CONTROL FOR STRESS PERIOD   45   TIME STEP   20
 
 SOLVING FOR HEAD 
                                                   Max.-Head-Change                         Max.-Flux-Residual
  Residual-Control   Outer-Iter.   Inner-Iter.     Column Row Layer    Maximum-Head-Change  Column Row Layer    Maximum-Flux-Residual          L2-NORM 
          0                 1           2             5    6     1       0.1435152202E+01       5    6    1         0.7795198138E+02      0.1477403977E+03
          0                 2           2             5    8     1       0.4647195807E+00       5    8    1         0.2509546349E+02      0.4335390385E+02
          0                 3           2             5    8     1       0.3430153100E+00       5    8    1         0.1865331085E+02      0.2875761248E+02
          0                 4           2             5    8     1       0.1118377530E+00       5    8    1         0.6227061408E+01      0.7980154357E+01
          0                 5           2             5    8     1       0.6395926509E-01       5    8    1         0.3544811855E+01      0.4245935689E+01
          0                 6           2             5    8     1       0.3669090878E-01       5    8    1         0.2028419745E+01      0.2387155169E+01
          0                 7           2             5    8     1       0.2108296959E-01       5    8    1         0.1163986112E+01      0.1367033510E+01
          0                 8           2             5    8     1       0.1212518999E-01       5    8    1         0.6689439944E+00      0.7873632953E+00
          0                 9           2             5    8     1       0.6976662423E-02       5    8    1         0.3847417902E+00      0.4543426367E+00
          0                10           2             5    8     1       0.4015346127E-02       5    8    1         0.2213816068E+00      0.2623679461E+00
                                                   Max.-Head-Change                         Max.-Flux-Residual
  Residual-Control   Outer-Iter.   Inner-Iter.     Column Row Layer    Maximum-Head-Change  Column Row Layer    Maximum-Flux-Residual          L2-NORM 
          0                11           2             5    8     1       0.2311350116E-02       5    8    1         0.1274160953E+00      0.1515639093E+00
          0                12           2             5    8     1       0.1330603248E-02       5    8    1         0.7334514931E-01      0.8757595233E-01
          0                13           1             5    8     1       0.7660483025E-03       5    8    1         0.4222375385E-01      0.5061281350E-01
          0                14           1             5    8     1       0.4410419257E-03       5    8    1         0.2430894061E-01      0.2925621607E-01
          0                15           1             5    8     1       0.2539305612E-03       5    8    1         0.1399557735E-01      0.1691447819E-01
          0                16           1             5    8     1       0.1462038563E-03       5    8    1         0.8057989093E-02      0.9781036979E-02
          0                17           1             5    8     1       0.8418021588E-04       5    8    1         0.4639499394E-02      0.5657197929E-02

    ------------------------------------------------
       NWT REQUIRED           17 OUTER ITERATIONS 
       AND A TOTAL OF         29 INNER ITERATIONS.
    ------------------------------------------------

 NO OUTPUT CONTROL FOR STRESS PERIOD   45   TIME STEP   21
 
 SOLVING FOR HEAD 
                                                   Max.-Head-Change                         Max.-Flux-Residual
  Residual-Control   Outer-Iter.   Inner-Iter.     Column Row Layer    Maximum-Head-Change  Column Row Layer    Maximum-Flux-Residual          L2-NORM 
          0                 1           2             4    6     1       0.1913290230E+01       4    6    1         0.1030802488E+03      0.1435429915E+03
          0                 2           2             4    8     1       0.4903867690E+00       4    8    1         0.2632172701E+02      0.4723328057E+02
          0                 3           2             5    8     1      -0.1704462786E+01       5    8    1        -0.9420161310E+02      0.2151280483E+03
          0                 4           2             5    7     1      -0.9566144581E+00       5    7    1        -0.5257383910E+02      0.1017852396E+03
          0                 5           2             4    8     1      -0.5472082279E+00       4    8    1        -0.3033820751E+02      0.3386289750E+02
          0                 6           2             4    7     1      -0.5764325420E-01       4    7    1        -0.3160960293E+01      0.4860374919E+01
          0                 7           2             4    7     1      -0.1787342288E-01       4    7    1        -0.9893541961E+00      0.1322277270E+01
          0                 8           2             4    7     1      -0.5542019085E-02       4    7    1        -0.3061008081E+00      0.4064835519E+00
          0                 9           2             4    7     1      -0.1718421583E-02       4    7    1        -0.9493529922E-01      0.1261225434E+00
          0                10           2             4    7     1      -0.5328345968E-03       4    7    1        -0.2943564230E-01      0.3913224639E-01
                                                   Max.-Head-Change                         Max.-Flux-Residual
  Residual-Control   Outer-Iter.   Inner-Iter.     Column Row Layer    Maximum-Head-Change  Column Row Layer    Maximum-Flux-Residual          L2-NORM 
          0                11           2             4    7     1      -0.1652174097E-03       4    7    1        -0.9126938935E-02      0.1214145503E-01
          0                12           1             4    7     1      -0.5122943799E-04       4    7    1        -0.2829939956E-02      0.3767021511E-02

    ------------------------------------------------
       NWT REQUIRED           12 OUTER ITERATIONS 
       AND A TOTAL OF         23 INNER ITERATIONS.
    ------------------------------------------------

 NO OUTPUT CONTROL FOR STRESS PERIOD   45   TIME STEP   22
 
 SOLVING FOR HEAD 
                                                   Max.-Head-Change                         Max.-Flux-Residual
  Residual-Control   Outer-Iter.   Inner-Iter.     Column Row Layer    Maximum-Head-Change  Column Row Layer    Maximum-Flux-Residual          L2-NORM 
          0                 1           2             5    6     1       0.1431344603E+01       5    6    1         0.7764845252E+02      0.1481807908E+03
          0                 2           2             5    8     1       0.4535601015E+00       5    8    1         0.2448536704E+02      0.4421186118E+02
          0                 3           2             5    8     1       0.3365838563E+00       5    8    1         0.1829870996E+02      0.2994026847E+02
          0                 4           2             5    8     1       0.1081429669E+00       5    8    1         0.6022955663E+01      0.8356610470E+01
          0                 5           2             5    8     1       0.6184096100E-01       5    8    1         0.3427586623E+01      0.4485906539E+01
          0                 6           2             5    8     1       0.3547794489E-01       5    8    1         0.1961225424E+01      0.2539574855E+01
          0                 7           2             5    8     1       0.2038897759E-01       5    8    1         0.1125514525E+01      0.1463412488E+01
          0                 8           2             5    8     1       0.1172832594E-01       5    8    1         0.6469293537E+00      0.8481103239E+00
          0                 9           2             5    8     1       0.6749838959E-02       5    8    1         0.3721531294E+00      0.4925374689E+00
          0                10           2             5    8     1       0.3885768545E-02       5    8    1         0.2141869430E+00      0.2863263508E+00
                                                   Max.-Head-Change                         Max.-Flux-Residual
  Residual-Control   Outer-Iter.   Inner-Iter.     Column Row Layer    Maximum-Head-Change  Column Row Layer    Maximum-Flux-Residual          L2-NORM 
          0                11           2             5    8     1       0.2237358091E-02       5    8    1         0.1233061193E+00      0.1665582151E+00
          0                12           2             5    8     1       0.1288369515E-02       5    8    1         0.7099831617E-01      0.9693977864E-01
          0                13           2             5    8     1       0.7419518690E-03       5    8    1         0.4088424692E-01      0.5644841252E-01
          0                14           1             5    8     1       0.4272996079E-03       5    8    1         0.2354470660E-01      0.3288587600E-01
          0                15           1             5    8     1       0.2460967388E-03       5    8    1         0.1355974314E-01      0.1916786501E-01
          0                16           1             4    7     1       0.1421721961E-03       5    8    1         0.7809548659E-02      0.1117751090E-01
          0                17           1             4    7     1       0.8366004981E-04       4    7    1         0.4525893218E-02      0.6521154360E-02

    ------------------------------------------------
       NWT REQUIRED           17 OUTER ITERATIONS 
       AND A TOTAL OF         30 INNER ITERATIONS.
    ------------------------------------------------

 NO OUTPUT CONTROL FOR STRESS PERIOD   45   TIME STEP   23
 
 SOLVING FOR HEAD 
                                                   Max.-Head-Change                         Max.-Flux-Residual
  Residual-Control   Outer-Iter.   Inner-Iter.     Column Row Layer    Maximum-Head-Change  Column Row Layer    Maximum-Flux-Residual          L2-NORM 
          0                 1           2             4    6     1       0.1669184121E+01       4    6    1         0.8980043454E+02      0.1335863135E+03
          0                 2           2             4    8     1       0.5426676800E+00       4    8    1         0.2922077862E+02      0.4834619392E+02
          0                 3           2             4    7     1      -0.1714495946E+01       5    8    1        -0.9471791575E+02      0.2141971319E+03
          0                 4           2             5    7     1      -0.9383928833E+00       5    6    1        -0.5160249339E+02      0.1002523266E+03
          0                 5           2             4    8     1      -0.5346223705E+00       4    8    1        -0.2971956237E+02      0.3742012515E+02
          0                 6           2             4    8     1      -0.2713035231E+00       4    8    1        -0.1509078982E+02      0.1575232755E+02
          0                 7           2             4    7     1      -0.1913582814E-01       4    7    1        -0.1069891738E+01      0.1746915817E+01
          0                 8           2             4    7     1      -0.5930083024E-02       4    7    1        -0.3272539170E+00      0.4301733418E+00
          0                 9           2             4    7     1      -0.1837742960E-02       4    7    1        -0.1015778255E+00      0.1329038589E+00
          0                10           2             4    7     1      -0.5695306449E-03       4    7    1        -0.3147632329E-01      0.4123254240E-01
                                                   Max.-Head-Change                         Max.-Flux-Residual
  Residual-Control   Outer-Iter.   Inner-Iter.     Column Row Layer    Maximum-Head-Change  Column Row Layer    Maximum-Flux-Residual          L2-NORM 
          0                11           2             4    7     1      -0.1765051050E-03       4    7    1        -0.9754558151E-02      0.1279243908E-01
          0                12           1             4    7     1      -0.5470219609E-04       4    7    1        -0.3022997031E-02      0.3968794144E-02

    ------------------------------------------------
       NWT REQUIRED           12 OUTER ITERATIONS 
       AND A TOTAL OF         23 INNER ITERATIONS.
    ------------------------------------------------

 NO OUTPUT CONTROL FOR STRESS PERIOD   45   TIME STEP   24
 
 SOLVING FOR HEAD 
                                                   Max.-Head-Change                         Max.-Flux-Residual
  Residual-Control   Outer-Iter.   Inner-Iter.     Column Row Layer    Maximum-Head-Change  Column Row Layer    Maximum-Flux-Residual          L2-NORM 
          0                 1           2             5    6     1       0.1413520469E+01       5    6    1         0.7657300423E+02      0.1484272071E+03
          0                 2           2             5    8     1       0.4369075875E+00       5    8    1         0.2357173140E+02      0.4546686158E+02
          0                 3           2             5    8     1       0.3269954930E+00       5    8    1         0.1776984555E+02      0.3110201891E+02
          0                 4           2             4    7     1       0.1044146826E+00       5    8    1         0.5718686197E+01      0.8908991545E+01
          0                 5           2             4    7     1       0.6103147130E-01       4    7    1         0.3320122652E+01      0.4846210103E+01
          0                 6           2             4    7     1       0.3579441346E-01       4    7    1         0.1941845201E+01      0.2766865258E+01
          0                 7           2             4    7     1       0.2103224177E-01       4    7    1         0.1139261121E+01      0.1604962588E+01
          0                 8           2             4    7     1       0.1237126103E-01       4    7    1         0.6695262329E+00      0.9357872375E+00
          0                 9           2             4    7     1       0.7281480490E-02       4    7    1         0.3938498510E+00      0.5466827009E+00
          0                10           2             4    7     1       0.4287597667E-02       4    7    1         0.2318254848E+00      0.3196868347E+00
                                                   Max.-Head-Change                         Max.-Flux-Residual
  Residual-Control   Outer-Iter.   Inner-Iter.     Column Row Layer    Maximum-Head-Change  Column Row Layer    Maximum-Flux-Residual          L2-NORM 
          0                11           2             4    7     1       0.2525500052E-02       4    7    1         0.1365132168E+00      0.1870712139E+00
          0                12           2             4    7     1       0.1487962094E-02       4    7    1         0.8041259287E-01      0.1095299180E+00
          0                13           2             4    7     1       0.8768626431E-03       4    7    1         0.4737865439E-01      0.6416259380E-01
          0                14           2             4    7     1       0.5168412437E-03       4    7    1         0.2792129084E-01      0.3760491585E-01
          0                15           2             4    7     1       0.3046933367E-03       4    7    1         0.1645786371E-01      0.2205032747E-01
          0                16           1             4    7     1       0.1796574587E-03       4    7    1         0.9702667754E-02      0.1293566777E-01
          0                17           1             4    7     1       0.1059501186E-03       4    7    1         0.5721172093E-02      0.7592106004E-02
          0                18           1             4    7     1       0.6249273678E-04       4    7    1         0.3374057531E-02      0.4457913241E-02

    ------------------------------------------------
       NWT REQUIRED           18 OUTER ITERATIONS 
       AND A TOTAL OF         33 INNER ITERATIONS.
    ------------------------------------------------

 NO OUTPUT CONTROL FOR STRESS PERIOD   45   TIME STEP   25
 
 SOLVING FOR HEAD 
                                                   Max.-Head-Change                         Max.-Flux-Residual
  Residual-Control   Outer-Iter.   Inner-Iter.     Column Row Layer    Maximum-Head-Change  Column Row Layer    Maximum-Flux-Residual          L2-NORM 
          0                 1           2             4    6     1       0.1459611282E+01       4    6    1         0.7840957977E+02      0.1270781080E+03
          0                 2           2             4    8     1       0.5913487232E+00       4    8    1         0.3191651222E+02      0.5033919942E+02
          0                 3           2             4    7     1      -0.1726900333E+01       5    8    1        -0.9510612277E+02      0.2133239833E+03
          0                 4           2             5    7     1      -0.9199310260E+00       5    6    1        -0.5073186562E+02      0.9735694097E+02
          0                 5           2             4    8     1      -0.5237539199E+00       4    8    1        -0.2910099199E+02      0.4643313369E+02
          0                 6           2             4    8     1      -0.3140220183E+00       4    8    1        -0.1747339858E+02      0.1818418239E+02
          0                 7           2             4    8     1      -0.1485429188E+00       4    8    1        -0.8270985387E+01      0.8394233293E+01
          0                 8           2             4    8     1       0.1002276726E-01       4    8    1         0.5794192305E+00      0.7487155411E+00
          0                 9           2             4    7     1      -0.2084250855E-02       4    7    1        -0.1150327204E+00      0.1470314419E+00
          0                10           2             4    7     1      -0.6450886067E-03       4    7    1        -0.3569344163E-01      0.4507693362E-01
                                                   Max.-Head-Change                         Max.-Flux-Residual
  Residual-Control   Outer-Iter.   Inner-Iter.     Column Row Layer    Maximum-Head-Change  Column Row Layer    Maximum-Flux-Residual          L2-NORM 
          0                11           2             4    7     1      -0.1996702729E-03       4    7    1        -0.1104599103E-01      0.1398114913E-01
          0                12           1             4    7     1      -0.6180607373E-04       4    7    1        -0.3418957539E-02      0.4336744490E-02

    ------------------------------------------------
       NWT REQUIRED           12 OUTER ITERATIONS 
       AND A TOTAL OF         23 INNER ITERATIONS.
    ------------------------------------------------

 NO OUTPUT CONTROL FOR STRESS PERIOD   45   TIME STEP   26
 
 SOLVING FOR HEAD 
                                                   Max.-Head-Change                         Max.-Flux-Residual
  Residual-Control   Outer-Iter.   Inner-Iter.     Column Row Layer    Maximum-Head-Change  Column Row Layer    Maximum-Flux-Residual          L2-NORM 
          0                 1           2             5    6     1       0.1397475104E+01       5    6    1         0.7560901627E+02      0.1490521649E+03
          0                 2           2             4    7     1       0.4718825510E+00       4    7    1         0.2499395449E+02      0.4703890823E+02
          0                 3           2             4    7     1       0.3558160183E+00       4    7    1         0.1893103552E+02      0.3236793472E+02
          0                 4           2             4    7     1       0.1224322506E+00       4    7    1         0.6676396167E+01      0.9648507105E+01
          0                 5           2             4    7     1       0.7173566591E-01       4    7    1         0.3894578186E+01      0.5319090403E+01
          0                 6           2             4    7     1       0.4215463334E-01       4    7    1         0.2283137028E+01      0.3059444115E+01
          0                 7           2             4    7     1       0.2481157966E-01       4    7    1         0.1342052456E+01      0.1783928907E+01
          0                 8           2             4    7     1       0.1461701395E-01       4    7    1         0.7900244008E+00      0.1044799071E+01
          0                 9           2             4    7     1       0.8615961240E-02       4    7    1         0.4654520984E+00      0.6129521732E+00
          0                10           2             4    7     1       0.5080573439E-02       4    7    1         0.2743731910E+00      0.3599164528E+00
                                                   Max.-Head-Change                         Max.-Flux-Residual
  Residual-Control   Outer-Iter.   Inner-Iter.     Column Row Layer    Maximum-Head-Change  Column Row Layer    Maximum-Flux-Residual          L2-NORM 
          0                11           2             4    7     1       0.2996695869E-02       4    7    1         0.1617958601E+00      0.2114645858E+00
          0                12           2             4    7     1       0.1767947329E-02       4    7    1         0.9543579516E-01      0.1243050587E+00
          0                13           2             4    7     1       0.1043226965E-02       4    7    1         0.5630543086E-01      0.7310290661E-01
          0                14           2             4    7     1       0.6156911532E-03       4    7    1         0.3322546943E-01      0.4300944307E-01
          0                15           2             4    7     1       0.3634264866E-03       4    7    1         0.1960947493E-01      0.2531445365E-01
          0                16           2             4    7     1       0.2145539141E-03       4    7    1         0.1157523790E-01      0.1490536432E-01
          0                17           1             4    7     1       0.1266835161E-03       4    7    1         0.6833760642E-02      0.8779712704E-02
          0                18           1             4    7     1       0.7481104131E-04       4    7    1         0.4035089163E-02      0.5173403743E-02

    ------------------------------------------------
       NWT REQUIRED           18 OUTER ITERATIONS 
       AND A TOTAL OF         34 INNER ITERATIONS.
    ------------------------------------------------

 NO OUTPUT CONTROL FOR STRESS PERIOD   45   TIME STEP   27
 
 SOLVING FOR HEAD 
                                                   Max.-Head-Change                         Max.-Flux-Residual
  Residual-Control   Outer-Iter.   Inner-Iter.     Column Row Layer    Maximum-Head-Change  Column Row Layer    Maximum-Flux-Residual          L2-NORM 
          0                 1           2             4    6     1       0.1278540799E+01       4    6    1         0.6857671996E+02      0.1233967880E+03
          0                 2           2             4    8     1       0.6364795126E+00       4    8    1         0.3441335080E+02      0.5284397718E+02
          0                 3           2             4    7     1      -0.1738735256E+01       5    8    1        -0.9540442316E+02      0.2125175444E+03
          0                 4           2             5    7     1      -0.9030653773E+00       5    6    1        -0.4994673142E+02      0.9527200844E+02
          0                 5           2             5    7     1      -0.5402439282E+00       5    7    1        -0.3015538228E+02      0.5092438525E+02
          0                 6           2             4    8     1      -0.3065562426E+00       4    8    1        -0.1709834239E+02      0.1877260847E+02
          0                 7           2             4    8     1      -0.1832835651E+00       4    8    1        -0.1022204566E+02      0.1027365908E+02
          0                 8           2             4    8     1      -0.1095806149E+00       4    8    1        -0.6111510315E+01      0.6117811516E+01
          0                 9           2             4    8     1      -0.3949781427E-01       4    8    1        -0.2202780672E+01      0.2204414702E+01
          0                10           2             4    8     1       0.2691811282E-02       4    8    1         0.1543682476E+00      0.1565438668E+00
                                                   Max.-Head-Change                         Max.-Flux-Residual
  Residual-Control   Outer-Iter.   Inner-Iter.     Column Row Layer    Maximum-Head-Change  Column Row Layer    Maximum-Flux-Residual          L2-NORM 
          0                11           2             4    6     1      -0.1407940900E-03       4    6    1        -0.7890168160E-02      0.1011225460E-01
          0                12           1             4    6     1      -0.4288538122E-04       4    6    1        -0.2403593853E-02      0.2404961495E-02

    ------------------------------------------------
       NWT REQUIRED           12 OUTER ITERATIONS 
       AND A TOTAL OF         23 INNER ITERATIONS.
    ------------------------------------------------

 NO OUTPUT CONTROL FOR STRESS PERIOD   45   TIME STEP   28
 
 SOLVING FOR HEAD 
                                                   Max.-Head-Change                         Max.-Flux-Residual
  Residual-Control   Outer-Iter.   Inner-Iter.     Column Row Layer    Maximum-Head-Change  Column Row Layer    Maximum-Flux-Residual          L2-NORM 
          0                 1           2             5    7     1       0.1389143059E+01       5    6    1         0.7475401774E+02      0.1485795062E+03
          0                 2           2             4    7     1       0.4680907756E+00       4    7    1         0.2475724137E+02      0.4728885075E+02
          0                 3           2             4    7     1       0.3539995954E+00       4    7    1         0.1881347726E+02      0.3269326727E+02
          0                 4           2             4    7     1       0.1216114700E+00       4    7    1         0.6620496768E+01      0.9794848364E+01
          0                 5           2             4    7     1       0.7139862224E-01       4    7    1         0.3869607329E+01      0.5416855750E+01
          0                 6           2             4    7     1       0.4204141235E-01       4    7    1         0.2273084543E+01      0.3123722109E+01
          0                 7           2             4    7     1       0.2479445291E-01       4    7    1         0.1338842555E+01      0.1825593901E+01
          0                 8           2             4    7     1       0.1463568941E-01       4    7    1         0.7897096352E+00      0.1071519802E+01
          0                 9           2             4    7     1       0.8643633762E-02       4    7    1         0.4661803719E+00      0.6299433390E+00
          0                10           2             4    7     1       0.5106536200E-02       4    7    1         0.2753317586E+00      0.3706452646E+00
                                                   Max.-Head-Change                         Max.-Flux-Residual
  Residual-Control   Outer-Iter.   Inner-Iter.     Column Row Layer    Maximum-Head-Change  Column Row Layer    Maximum-Flux-Residual          L2-NORM 
          0                11           2             4    7     1       0.3017589506E-02       4    7    1         0.1626674297E+00      0.2181994115E+00
          0                12           2             4    7     1       0.1783501075E-02       4    7    1         0.9612709209E-01      0.1285112910E+00
          0                13           2             4    7     1       0.1054271035E-02       4    7    1         0.5681576590E-01      0.7571827675E-01
          0                14           2             4    7     1       0.6232880634E-03       4    7    1         0.3358587361E-01      0.4462930144E-01
          0                15           2             4    7     1       0.3685344449E-03       4    7    1         0.1985644347E-01      0.2631426313E-01
          0                16           2             4    7     1       0.2179299616E-03       4    7    1         0.1174082487E-01      0.1552056360E-01
          0                17           1             4    7     1       0.1288852385E-03       4    7    1         0.6942965994E-02      0.9157207428E-02
          0                18           1             4    7     1       0.7623161652E-04       4    7    1         0.4106185902E-02      0.5404461375E-02

    ------------------------------------------------
       NWT REQUIRED           18 OUTER ITERATIONS 
       AND A TOTAL OF         34 INNER ITERATIONS.
    ------------------------------------------------

 NO OUTPUT CONTROL FOR STRESS PERIOD   45   TIME STEP   29
 
 SOLVING FOR HEAD 
                                                   Max.-Head-Change                         Max.-Flux-Residual
  Residual-Control   Outer-Iter.   Inner-Iter.     Column Row Layer    Maximum-Head-Change  Column Row Layer    Maximum-Flux-Residual          L2-NORM 
          0                 1           2             4    8     1       0.1273962661E+01       4    8    1         0.6863258202E+02      0.1220246561E+03
          0                 2           2             4    8     1       0.6785650178E+00       4    8    1         0.3673842197E+02      0.5563330874E+02
          0                 3           2             4    7     1      -0.1749306114E+01       5    8    1        -0.9563878253E+02      0.2117578853E+03
          0                 4           2             5    6     1      -0.8895506889E+00       5    6    1        -0.4923663353E+02      0.9229576870E+02
          0                 5           2             5    6     1      -0.5340239702E+00       5    6    1        -0.2969029275E+02      0.5127398119E+02
          0                 6           2             5    7     1      -0.3095992052E+00       5    7    1        -0.1748557110E+02      0.2481655087E+02
          0                 7           2             4    8     1      -0.1792843217E+00       4    8    1        -0.9999734225E+01      0.1012380189E+02
          0                 8           2             4    8     1      -0.1071873022E+00       4    8    1        -0.5978140595E+01      0.5985205276E+01
          0                 9           2             4    8     1      -0.6408282641E-01       4    8    1        -0.3574049931E+01      0.3575124514E+01
          0                10           2             4    8     1      -0.3831223077E-01       4    8    1        -0.2136736750E+01      0.2136907504E+01
                                                   Max.-Head-Change                         Max.-Flux-Residual
  Residual-Control   Outer-Iter.   Inner-Iter.     Column Row Layer    Maximum-Head-Change  Column Row Layer    Maximum-Flux-Residual          L2-NORM 
          0                11           2             4    8     1      -0.2290502144E-01       4    8    1        -0.1277436998E+01      0.1277465106E+01
          0                12           2             4    8     1      -0.1369371894E-01       4    8    1        -0.7637050050E+00      0.7637100927E+00
          0                13           2             4    8     1      -0.8186712069E-02       4    8    1        -0.4565720930E+00      0.4565732448E+00
          0                14           2             4    8     1      -0.4894349541E-02       4    8    1        -0.2729546929E+00      0.2729550663E+00
          0                15           2             4    8     1      -0.2926023288E-02       4    8    1        -0.1631808438E+00      0.1631810115E+00
          0                16           2             4    8     1      -0.1749274170E-02       4    8    1        -0.9755401342E-01      0.9755410304E-01
          0                17           2             4    8     1      -0.1045767842E-02       4    8    1        -0.5832012328E-01      0.5832017463E-01
          0                18           2             4    8     1      -0.6251870427E-03       4    8    1        -0.3486494868E-01      0.3486497886E-01
          0                19           2             4    8     1      -0.3737506301E-03       4    8    1        -0.2084284116E-01      0.2084285910E-01
          0                20           2             4    8     1      -0.2234349851E-03       4    8    1        -0.1246011615E-01      0.1246012690E-01
                                                   Max.-Head-Change                         Max.-Flux-Residual
  Residual-Control   Outer-Iter.   Inner-Iter.     Column Row Layer    Maximum-Head-Change  Column Row Layer    Maximum-Flux-Residual          L2-NORM 
          0                21           2             4    8     1      -0.1335726953E-03       4    8    1        -0.7448769582E-02      0.7448775942E-02
          0                22           1             4    8     1      -0.7985120517E-04       4    8    1        -0.4452913558E-02      0.4452917715E-02

    ------------------------------------------------
       NWT REQUIRED           22 OUTER ITERATIONS 
       AND A TOTAL OF         43 INNER ITERATIONS.
    ------------------------------------------------

 NO OUTPUT CONTROL FOR STRESS PERIOD   45   TIME STEP   30



 STREAM LISTING     PERIOD     45   STEP       30

 LAYER ROW COL. STREAM  RCH.  FLOW INTO     FLOW TO   FLOW OUT OF   OVRLND.     DIRECT     STREAM       STREAM     STREAM     STREAM   STREAMBED  STREAMBED
                SEG.NO.  NO.  STRM. RCH.    AQUIFER    STRM. RCH.    RUNOFF     PRECIP       ET          HEAD       DEPTH      WIDTH   CONDCTNC.   GRADIENT

   1    1    1     1     1    2.7749E+01  2.5751E-01   2.7492E+01  0.000E+00  0.000E+00  0.000E+00  1.09427E+03  1.218E+00  1.357E+01  6.105E-02  1.406E+00
   1    2    2     1     2    2.7492E+01  3.9832E-01   2.7093E+01  0.000E+00  0.000E+00  0.000E+00  1.08927E+03  1.213E+00  1.351E+01  9.454E-02  1.404E+00
   1    3    3     1     3    2.7093E+01  3.3923E-01   2.6754E+01  0.000E+00  0.000E+00  0.000E+00  1.08363E+03  1.208E+00  1.344E+01  8.062E-02  1.403E+00
   1    3    4     1     4    2.6754E+01  3.1200E-01   2.6442E+01  0.000E+00  0.000E+00  0.000E+00  1.07861E+03  1.203E+00  1.337E+01  7.422E-02  1.401E+00
   1    4    5     2     1    2.4442E+01  3.2655E-01   2.4116E+01  0.000E+00  0.000E+00  0.000E+00  1.07312E+03  1.187E+00  1.200E+01  7.800E-02  1.396E+00
   1    5    6     2     2    2.4116E+01  2.5068E-01   2.3865E+01  0.000E+00  0.000E+00  0.000E+00  1.06769E+03  1.178E+00  1.200E+01  6.000E-02  1.393E+00
   1    6    6     2     3    2.3865E+01  2.5024E-01   2.3615E+01  0.000E+00  0.000E+00  0.000E+00  1.06296E+03  1.171E+00  1.200E+01  6.000E-02  1.390E+00
   1    7    6     2     4    2.3615E+01  2.4979E-01   2.3365E+01  0.000E+00  0.000E+00  0.000E+00  1.05824E+03  1.163E+00  1.200E+01  6.000E-02  1.388E+00
   1    8    6     2     5    2.3365E+01  2.4935E-01   2.3115E+01  0.000E+00  0.000E+00  0.000E+00  1.05351E+03  1.156E+00  1.200E+01  6.000E-02  1.385E+00
   1    3    5     3     1    2.0000E+00  2.8252E-01   1.7175E+00  0.000E+00  0.000E+00  0.000E+00  1.07555E+03  1.909E+00  9.636E+00  7.227E-02  1.955E+00
   1    3    6     3     2    1.7175E+00  2.4905E-01   1.4684E+00  0.000E+00  0.000E+00  0.000E+00  1.07264E+03  1.727E+00  8.909E+00  6.682E-02  1.864E+00
   1    3    7     3     3    1.4684E+00  1.9718E-01   1.2712E+00  0.000E+00  0.000E+00  0.000E+00  1.06987E+03  1.555E+00  8.218E+00  5.547E-02  1.777E+00
   1    4    8     3     4    1.2712E+00  2.2567E-01   1.0456E+00  0.000E+00  0.000E+00  0.000E+00  1.06682E+03  1.364E+00  7.455E+00  6.709E-02  1.682E+00
   1    5    8     3     5    1.0456E+00  1.5790E-01   8.8768E-01  0.000E+00  0.000E+00  0.000E+00  1.06362E+03  1.164E+00  6.655E+00  4.991E-02  1.582E+00
   1    6    8     3     6    8.8768E-01  5.5980E-02   8.3170E-01  0.000E+00  0.000E+00  0.000E+00  1.06158E+03  1.036E+00  6.145E+00  1.844E-02  1.518E+00
   1    5   10     4     1    1.0000E+01  9.0919E-02   9.9091E+00  0.000E+00  0.000E+00  0.000E+00  1.07836E+03  6.368E-01  1.000E+01  2.500E-02  1.212E+00
   1    5    9     4     2    9.9091E+00  1.8158E-01   9.7275E+00  0.000E+00  0.000E+00  0.000E+00  1.07154E+03  6.315E-01  1.000E+01  5.000E-02  1.211E+00
   1    6    8     4     3    9.7275E+00  1.2689E-01   9.6006E+00  0.000E+00  0.000E+00  0.000E+00  1.06381E+03  6.256E-01  1.000E+01  3.500E-02  1.209E+00
   1    6    8     5     1    1.0432E+01  2.2686E-01   1.0205E+01  0.000E+00  0.000E+00  0.000E+00  1.05868E+03  6.790E-01  1.542E+01  6.166E-02  1.226E+00
   1    7    7     5     2    1.0205E+01  2.7894E-01   9.9265E+00  0.000E+00  0.000E+00  0.000E+00  1.05417E+03  6.732E-01  1.519E+01  7.594E-02  1.224E+00
   1    8    7     5     3    9.9265E+00  1.9221E-01   9.7343E+00  0.000E+00  0.000E+00  0.000E+00  1.04992E+03  6.676E-01  1.497E+01  5.241E-02  1.223E+00
   1    8    6     5     4    9.7343E+00  1.3577E-01   9.5985E+00  0.000E+00  0.000E+00  0.000E+00  1.04691E+03  6.637E-01  1.482E+01  3.706E-02  1.221E+00
   1    9    6     6     1    9.5985E+00  2.2097E-01   9.3776E+00  0.000E+00  0.000E+00  0.000E+00  1.04341E+03  6.828E-01  1.200E+01  6.000E-02  1.228E+00
   1   10    7     6     2    9.3776E+00  2.2039E-01   9.1572E+00  0.000E+00  0.000E+00  0.000E+00  1.03885E+03  6.732E-01  1.200E+01  6.000E-02  1.224E+00
   1   11    7     6     3    9.1572E+00  2.1981E-01   8.9374E+00  0.000E+00  0.000E+00  0.000E+00  1.03430E+03  6.636E-01  1.200E+01  6.000E-02  1.221E+00
   1   12    7     6     4    8.9374E+00  2.1923E-01   8.7181E+00  0.000E+00  0.000E+00  0.000E+00  1.02974E+03  6.539E-01  1.200E+01  6.000E-02  1.218E+00
   1   13    7     6     5    8.7181E+00 -1.3053E-01   8.8487E+00  0.000E+00  0.000E+00  0.000E+00  1.02656E+03  6.519E-01  1.200E+01  2.400E-01 -1.813E-01
   1   14    9     7     1    1.5000E+02  1.3445E+00   1.4866E+02  0.000E+00  0.000E+00  0.000E+00  1.03987E+03  2.288E+00  5.529E+01  5.593E-01  8.013E-01
   1   13    8     7     2    1.4866E+02  1.8286E+00   1.4683E+02  0.000E+00  0.000E+00  0.000E+00  1.03478E+03  2.279E+00  5.526E+01  6.148E-01  9.915E-01
   1   13    7     7     3    1.4683E+02  1.4436E+00   1.4538E+02  0.000E+00  0.000E+00  0.000E+00  1.02969E+03  2.271E+00  5.522E+01  5.585E-01  8.617E-01
   1   13    6     8     1    1.5423E+02  7.9542E-01   1.5344E+02  0.000E+00  0.000E+00  0.000E+00  1.02472E+03  2.844E+00  4.123E+01  4.202E-01  6.310E-01
   1   13    5     8     2    1.5344E+02  7.1330E-02   1.5337E+02  0.000E+00  0.000E+00  0.000E+00  1.01847E+03  2.841E+00  4.119E+01  4.197E-01  5.665E-02
   1   13    4     8     3    1.5337E+02 -2.7672E+00   1.5613E+02  0.000E+00  0.000E+00  0.000E+00  1.01222E+03  2.850E+00  4.132E+01  4.211E+00 -2.190E-01
   1   13    3     8     4    1.5613E+02 -3.7979E+00   1.5993E+02  0.000E+00  0.000E+00  0.000E+00  1.00600E+03  2.872E+00  4.165E+01  4.244E+00 -2.983E-01
   1   13    2     8     5    1.5993E+02 -2.6156E+00   1.6255E+02  0.000E+00  0.000E+00  0.000E+00  9.99769E+02  2.894E+00  4.197E+01  4.276E+00 -2.039E-01
   1   13    1     8     6    1.6255E+02 -1.9946E+00   1.6454E+02  0.000E+00  0.000E+00  0.000E+00  9.94785E+02  2.910E+00  4.219E+01  2.580E+00 -2.577E-01
   1    8    6     9     1    2.3115E+01  0.0000E+00   2.3115E+01  0.000E+00  0.000E+00  0.000E+00  1.08250E+03  3.746E+00  4.000E+00  0.000E+00  2.249E+00
   1    8    5     9     2    2.3115E+01  0.0000E+00   2.3115E+01  0.000E+00  0.000E+00  0.000E+00  1.08200E+03  3.746E+00  4.000E+00  0.000E+00  2.249E+00





UNSATURATED ZONE PACKAGE VOLUMETRIC BUDGET FOR  TIME STEP    30 STRESS PERIOD   45
  ------------------------------------------------------------------------------



     CUMULATIVE VOLUMES      L**3       RATES FOR THIS TIME STEP      L**3/T
     ------------------                 ------------------------

           IN:                                      IN:
           ---                                      ---
        INFILTRATION =  5817888936.6281          INFILTRATION =         623.9634

          OUT:                                     OUT:
          ----                                     ----
              UZF ET =  1674717596.6741                UZF ET =          49.5675
        UZF RECHARGE =  3300518974.1858          UZF RECHARGE =          31.8485

            IN - OUT =   842652365.7682              IN - OUT =         542.5474

          STORAGE:                                 STORAGE:
          --------                                 --------
      STORAGE CHANGE =   842634491.7121        STORAGE CHANGE =         542.5474

 PERCENT DISCREPANCY IS DIFFERENCE BETWEEN IN-OUT MINUS CHANGE IN STORAGE
 DIVIDED BY THE AVERAGE OF IN AND OUT TIMES 100

 PERCENT DISCREPANCY =           0.00     PERCENT DISCREPANCY =          -0.00






1
  VOLUMETRIC BUDGET FOR AGRICULTURAL FIELDS AT  END OF TIME STEP   30, STRESS PERIOD  45
  ------------------------------------------------------------------------------

     CUMULATIVE VOLUMES      L**3       RATES FOR THIS TIME STEP      L**3/T
     ------------------                 ------------------------

           IN:                                      IN:
           ---                                      ---
           AG WELLS      =  3861166848.0000             AG WELLS      =         600.0000
      DIVERSION SEGMENTS =  1858556416.0000        DIVERSION SEGMENTS =          23.1155
           GW IRRIGATION =           0.0000             GW IRRIGATION =           0.0000
           SW IRRIGATION =           0.0000             SW IRRIGATION =           0.0000
        SYSTEM LOSSES GW =           0.0000          SYSTEM LOSSES GW =           0.0000
        SYSTEM LOSSES SW =           0.0000          SYSTEM LOSSES SW =           0.0000

                TOTAL IN =  5719723008.0000                  TOTAL IN =         623.1155

          OUT:                                     OUT:
          ----                                     ----
           AG WELLS      =           0.0000             AG WELLS      =           0.0000
      DIVERSION SEGMENTS =           0.0000        DIVERSION SEGMENTS =           0.0000
           GW IRRIGATION =  3861166848.0000             GW IRRIGATION =         600.0000
           SW IRRIGATION =  1858588672.0000             SW IRRIGATION =          23.1159
        SYSTEM LOSSES GW =           0.0000          SYSTEM LOSSES GW =           0.0000
        SYSTEM LOSSES SW =           0.0000          SYSTEM LOSSES SW =           0.0000

               TOTAL OUT =  5719755776.0000                 TOTAL OUT =         623.1160

                IN - OUT =      -32768.0000                  IN - OUT =      -4.8828E-04

     PERCENT DISCREPANCY =          -0.00         PERCENT DISCREPANCY =          -0.00



1
  VOLUMETRIC BUDGET FOR ENTIRE MODEL AT END OF TIME STEP   30, STRESS PERIOD  45
  ------------------------------------------------------------------------------

     CUMULATIVE VOLUMES      L**3       RATES FOR THIS TIME STEP      L**3/T
     ------------------                 ------------------------

           IN:                                      IN:
           ---                                      ---
             STORAGE     =  3891470336.0000               STORAGE     =         568.6442
       CONSTANT HEAD     =           0.0000         CONSTANT HEAD     =           0.0000
     HEAD DEP BOUNDS     =    33147454.0000       HEAD DEP BOUNDS     =           0.2863
      STREAM LEAKAGE     =  1385339392.0000        STREAM LEAKAGE     =          11.3990
        UZF RECHARGE     =  3300517888.0000          UZF RECHARGE     =          31.8485
               GW ET     =           0.0000                 GW ET     =           0.0000
     SURFACE LEAKAGE     =           0.0000       SURFACE LEAKAGE     =           0.0000
           AG WELLS      =           0.0000             AG WELLS      =           0.0000

                TOTAL IN =  8610475008.0000                  TOTAL IN =         612.1781

          OUT:                                     OUT:
          ----                                     ----
             STORAGE     =  3463254272.0000               STORAGE     =           0.5876
       CONSTANT HEAD     =           0.0000         CONSTANT HEAD     =           0.0000
     HEAD DEP BOUNDS     =    33555772.0000       HEAD DEP BOUNDS     =           0.2872
      STREAM LEAKAGE     =  1251701504.0000        STREAM LEAKAGE     =          11.3059
        UZF RECHARGE     =           0.0000          UZF RECHARGE     =           0.0000
               GW ET     =      831874.7500                 GW ET     =           0.0000
     SURFACE LEAKAGE     =           0.0000       SURFACE LEAKAGE     =           0.0000
           AG WELLS      =  3861166848.0000             AG WELLS      =         600.0000

               TOTAL OUT =  8610509824.0000                 TOTAL OUT =         612.1807

                IN - OUT =      -34816.0000                  IN - OUT =      -2.6245E-03

     PERCENT DISCREPANCY =          -0.00         PERCENT DISCREPANCY =          -0.00






         TIME SUMMARY AT END OF TIME STEP   30 IN STRESS PERIOD   45
                    SECONDS     MINUTES      HOURS       DAYS        YEARS
                    -----------------------------------------------------------
   TIME STEP LENGTH  87667.      1461.1      24.352      1.0147     2.77799E-03
 STRESS PERIOD TIME 2.63000E+06  43833.      730.56      30.440     8.33397E-02
         TOTAL TIME 1.15805E+08 1.93009E+06  32168.      1340.3      3.6696    
1
1
                            STRESS PERIOD NO.   46, LENGTH =   2630000.    
                            -----------------------------------------------

                              NUMBER OF TIME STEPS =    30

                               MULTIPLIER FOR DELT =     1.000

                            INITIAL TIME STEP SIZE =   87666.66    

 REUSING NON-PARAMETER GHB CELLS FROM LAST STRESS PERIOD

      2 GHB CELLS

 REUSING STREAM SEGMENT DATA FROM LAST STRESS PERIOD



            AREAL INFILTRATION RATE
 READING ON UNIT   19 WITH FORMAT: (FREE)              

            1           2           3           4           5           6           7           8           9          10
 ........................................................................................................................
   1   1.0000E-10  2.0000E-10   0.000       0.000       0.000       0.000       0.000       0.000       0.000       0.000    
   2   2.0000E-10  1.0000E-10  2.0000E-10   0.000       0.000      8.0000E-10  8.0000E-10  5.0000E-10   0.000       0.000    
   3    0.000      5.0000E-10  1.0000E-10  1.0000E-10  8.0000E-10  8.0000E-10  5.0000E-10  5.0000E-10   0.000       0.000    
   4   8.0000E-10  5.0000E-10  1.0000E-10  1.0000E-10  1.0000E-10  1.0000E-10  1.0000E-10  1.0000E-10  2.0000E-10   0.000    
   5   8.0000E-10  5.0000E-10  1.0000E-10  1.0000E-10  1.0000E-10  1.0000E-10  1.0000E-10  1.0000E-10  1.0000E-10  1.0000E-10
   6   8.0000E-10  5.0000E-10  5.0000E-10  2.0000E-10  2.0000E-10  1.0000E-10  1.0000E-10  1.0000E-10  1.0000E-10  5.0000E-10
   7   8.0000E-10  5.0000E-10  5.0000E-10  2.0000E-10  2.0000E-10  1.0000E-10  1.0000E-10  2.0000E-10  2.0000E-10   0.000    
   8    0.000      5.0000E-10  5.0000E-10  2.0000E-10  2.0000E-10  1.0000E-10  1.0000E-10  2.0000E-10  5.0000E-10   0.000    
   9    0.000      5.0000E-10  5.0000E-10  2.0000E-10  2.0000E-10  1.0000E-10  1.0000E-10  2.0000E-10  5.0000E-10   0.000    
  10    0.000      5.0000E-10  5.0000E-10  2.0000E-10  2.0000E-10  1.0000E-10  1.0000E-10  2.0000E-10  5.0000E-10  8.0000E-10
  11    0.000      1.0000E-10  1.0000E-10  1.0000E-10  1.0000E-10  1.0000E-10  1.0000E-10  2.0000E-10  5.0000E-10   0.000    
  12   1.0000E-10  1.0000E-10  1.0000E-10  1.0000E-10  1.0000E-10  1.0000E-10  1.0000E-10  1.0000E-10  2.0000E-10   0.000    
  13   1.0000E-10  1.0000E-10  2.0000E-10  2.0000E-10  2.0000E-10  2.0000E-10  2.0000E-10  1.0000E-10  1.0000E-10   0.000    
  14    0.000      2.0000E-10  5.0000E-10  5.0000E-10  5.0000E-10  5.0000E-10  5.0000E-10  2.0000E-10  1.0000E-10   0.000    
  15    0.000       0.000      8.0000E-10  8.0000E-10  8.0000E-10  8.0000E-10   0.000       0.000       0.000       0.000    

                  ET RATE =  7.500000E-08

 USING ET EXTINCTION DEPTH FROM PREVIOUS STRESS PERIOD. CURRENT PERIOD IS:      46

 USING EXTINCTION WATER CONTENT FROM PREVIOUS STRESS PERIOD. CURRENT PERIOD IS:      46

 USING AIR ENTRY PRESSURE FROM PREVIOUS STRESS PERIOD. CURRENT PERIOD IS:      46

 USING ROOT PRESSURE HEAD FROM PREVIOUS STRESS PERIOD. CURRENT PERIOD IS:      46

 USING ROOT ACTIVITY FROM PREVIOUS STRESS PERIOD. CURRENT PERIOD IS:      46

 PROCESSING AG STRESS PERIOD DATA

 READING AG STRESS PERIOD DATA

 READING IRRIGATION SEGMENT

 READING IRRIGATION WELL

 READING SUPPLEMENTAL WELL

 END PROCESSING AG STRESS PERIOD DATA OPTIONS
 
 SOLVING FOR HEAD 
                                                   Max.-Head-Change                         Max.-Flux-Residual
  Residual-Control   Outer-Iter.   Inner-Iter.     Column Row Layer    Maximum-Head-Change  Column Row Layer    Maximum-Flux-Residual          L2-NORM 
          0                 1           2             5    7     1       0.1380701037E+01       5    6    1         0.7399525481E+02      0.1468715193E+03
          0                 2           2             4    7     1       0.5488996016E+00       4    7    1         0.2893760279E+02      0.5859707635E+02
          0                 3           2             4    7     1       0.3295466748E+00       4    7    1         0.1755303615E+02      0.2950760311E+02
          0                 4           2             4    7     1       0.1965755819E+00       4    7    1         0.1052060789E+02      0.1662393147E+02
          0                 5           2             4    7     1       0.1168992127E+00       4    7    1         0.6270606004E+01      0.9684999392E+01
          0                 6           2             4    7     1       0.6941630531E-01       4    7    1         0.3727584951E+01      0.5688751003E+01
          0                 7           2             4    7     1       0.4119199491E-01       4    7    1         0.2213092053E+01      0.3348049809E+01
          0                 8           2             4    7     1       0.2443575018E-01       4    7    1         0.1313149133E+01      0.1971677337E+01
          0                 9           2             4    7     1       0.1449362596E-01       4    7    1         0.7789507039E+00      0.1161546954E+01
          0                10           2             4    7     1       0.8596149825E-02       4    7    1         0.4620127461E+00      0.6845096991E+00
                                                   Max.-Head-Change                         Max.-Flux-Residual
  Residual-Control   Outer-Iter.   Inner-Iter.     Column Row Layer    Maximum-Head-Change  Column Row Layer    Maximum-Flux-Residual          L2-NORM 
          0                11           2             4    7     1       0.5098286458E-02       4    7    1         0.2740173601E+00      0.4035192764E+00
          0                12           2             4    7     1       0.3023752979E-02       4    7    1         0.1625165985E+00      0.2379525935E+00
          0                13           2             4    7     1       0.1793387801E-02       4    7    1         0.9638739273E-01      0.1403640122E+00
          0                14           2             4    7     1       0.1063677045E-02       4    7    1         0.5716748130E-01      0.8282408101E-01
          0                15           2             4    7     1       0.6308902846E-03       4    7    1         0.3390672003E-01      0.4888646241E-01
          0                16           2             4    7     1       0.3742024875E-03       4    7    1         0.2011087996E-01      0.2886336704E-01
          0                17           2             4    7     1       0.2219567402E-03       4    7    1         0.1192848196E-01      0.1704617299E-01
          0                18           1             4    7     1       0.1316554327E-03       4    7    1         0.7075353176E-02      0.1006985943E-01
          0                19           1             4    7     1       0.7809404226E-04       4    7    1         0.4196815115E-02      0.5950201582E-02

    ------------------------------------------------
       NWT REQUIRED           19 OUTER ITERATIONS 
       AND A TOTAL OF         36 INNER ITERATIONS.
    ------------------------------------------------

 NO OUTPUT CONTROL FOR STRESS PERIOD   46   TIME STEP    1
 
 SOLVING FOR HEAD 
                                                   Max.-Head-Change                         Max.-Flux-Residual
  Residual-Control   Outer-Iter.   Inner-Iter.     Column Row Layer    Maximum-Head-Change  Column Row Layer    Maximum-Flux-Residual          L2-NORM 
          0                 1           2             4    8     1       0.1385251813E+01       4    8    1         0.7491573450E+02      0.1233121331E+03
          0                 2           2             4    8     1       0.8150068783E+00       4    8    1         0.4410741091E+02      0.6795916698E+02
          0                 3           2             5    7     1       0.3995137939E+00       5    7    1         0.2170061421E+02      0.3504212184E+02
          0                 4           2             5    7     1       0.2335643328E+00       5    7    1         0.1270341765E+02      0.1800758067E+02
          0                 5           2             5    7     1       0.1365413556E+00       5    7    1         0.7429963314E+01      0.1015651903E+02
          0                 6           2             5    6     1       0.7228613386E-01       5    6    1         0.3943056129E+01      0.4870338205E+01
          0                 7           2             5    6     1       0.4189521351E-01       5    6    1         0.2298394713E+01      0.2443848436E+01
          0                 8           2             5    6     1       0.2419097545E-01       5    6    1         0.1330783826E+01      0.1353988551E+01
          0                 9           2             5    6     1       0.1394302554E-01       5    6    1         0.7680521323E+00      0.7721874115E+00
          0                10           2             5    6     1       0.8029303856E-02       5    6    1         0.4425826297E+00      0.4434855666E+00
                                                   Max.-Head-Change                         Max.-Flux-Residual
  Residual-Control   Outer-Iter.   Inner-Iter.     Column Row Layer    Maximum-Head-Change  Column Row Layer    Maximum-Flux-Residual          L2-NORM 
          0                11           2             5    6     1       0.4621804055E-02       5    6    1         0.2548393354E+00      0.2550989634E+00
          0                12           2             5    6     1       0.2659826704E-02       5    6    1         0.1466818039E+00      0.1467796028E+00
          0                13           2             5    6     1       0.1530558834E-02       5    6    1         0.8441242184E-01      0.8445715151E-01
          0                14           2             5    6     1       0.8806929029E-03       5    6    1         0.4857326596E-01      0.4859615987E-01
          0                15           2             5    6     1       0.5067432892E-03       5    6    1         0.2794917229E-01      0.2796159821E-01
          0                16           2             5    6     1       0.2915721917E-03       5    6    1         0.1608166722E-01      0.1608861295E-01
          0                17           2             5    6     1       0.1677650599E-03       5    6    1         0.9253126126E-02      0.9257065647E-02
          0                18           1             5    6     1       0.9652851035E-04       5    6    1         0.5324067602E-02      0.5326318261E-02

    ------------------------------------------------
       NWT REQUIRED           18 OUTER ITERATIONS 
       AND A TOTAL OF         35 INNER ITERATIONS.
    ------------------------------------------------

 NO OUTPUT CONTROL FOR STRESS PERIOD   46   TIME STEP    2
 
 SOLVING FOR HEAD 
                                                   Max.-Head-Change                         Max.-Flux-Residual
  Residual-Control   Outer-Iter.   Inner-Iter.     Column Row Layer    Maximum-Head-Change  Column Row Layer    Maximum-Flux-Residual          L2-NORM 
          0                 1           2             4    7     1       0.1994115620E+01       4    7    1         0.1071470876E+03      0.1716797001E+03
          0                 2           2             4    6     1       0.7863524443E+00       4    6    1         0.4240137116E+02      0.6070244750E+02
          0                 3           2             4    6     1       0.2277222670E+00       4    6    1         0.1227340454E+02      0.1818247734E+02
          0                 4           2             4    6     1       0.6600350173E-01       4    6    1         0.3555019001E+01      0.5980893130E+01
          0                 5           2             4    8     1       0.3531331385E-01       4    8    1         0.1896217929E+01      0.2412259248E+01
          0                 6           2             4    8     1       0.2085683047E-01       4    8    1         0.1125837768E+01      0.1209948784E+01
          0                 7           2             4    8     1       0.1227643225E-01       4    8    1         0.6643564335E+00      0.6779371856E+00
          0                 8           2             4    8     1       0.7213937035E-02       4    8    1         0.3908753784E+00      0.3932398178E+00
          0                 9           2             4    8     1       0.4235633151E-02       4    8    1         0.2296398789E+00      0.2301227877E+00
          0                10           2             4    8     1       0.2485939018E-02       4    8    1         0.1348182275E+00      0.1349444628E+00
                                                   Max.-Head-Change                         Max.-Flux-Residual
  Residual-Control   Outer-Iter.   Inner-Iter.     Column Row Layer    Maximum-Head-Change  Column Row Layer    Maximum-Flux-Residual          L2-NORM 
          0                11           2             4    8     1       0.1458737306E-02       4    8    1         0.7912228049E-01      0.7916603696E-01
          0                12           2             4    8     1       0.8558971598E-03       4    8    1         0.4642742717E-01      0.4644652279E-01
          0                13           2             4    8     1       0.5021636868E-03       4    8    1         0.2724041969E-01      0.2725003722E-01
          0                14           2             4    8     1       0.2946176523E-03       4    8    1         0.1598213857E-01      0.1598736772E-01
          0                15           2             4    8     1       0.1728491124E-03       4    8    1         0.9376636030E-02      0.9379590742E-02
          0                16           1             4    8     1       0.1014081912E-03       4    8    1         0.5501166756E-02      0.5502868378E-02
          0                17           1             4    8     1       0.5949461719E-04       4    8    1         0.3227456326E-02      0.3228445505E-02

    ------------------------------------------------
       NWT REQUIRED           17 OUTER ITERATIONS 
       AND A TOTAL OF         32 INNER ITERATIONS.
    ------------------------------------------------

 NO OUTPUT CONTROL FOR STRESS PERIOD   46   TIME STEP    3
 
 SOLVING FOR HEAD 
                                                   Max.-Head-Change                         Max.-Flux-Residual
  Residual-Control   Outer-Iter.   Inner-Iter.     Column Row Layer    Maximum-Head-Change  Column Row Layer    Maximum-Flux-Residual          L2-NORM 
          0                 1           2             5    7     1       0.1895221550E+01       5    7    1         0.1017810275E+03      0.1757690913E+03
          0                 2           2             4    7     1       0.5724728913E+00       4    7    1         0.3018767046E+02      0.6328621176E+02
          0                 3           2             4    7     1       0.3428011517E+00       4    7    1         0.1830625573E+02      0.2856010918E+02
          0                 4           2             4    7     1       0.2036477588E+00       4    7    1         0.1093899378E+02      0.1537668677E+02
          0                 5           2             4    7     1       0.1205342847E+00       4    7    1         0.6492202922E+01      0.8838768293E+01
          0                 6           2             4    7     1       0.7122032991E-01       4    7    1         0.3840832908E+01      0.5169185717E+01
          0                 7           2             4    7     1       0.4205089240E-01       4    7    1         0.2268968573E+01      0.3035579088E+01
          0                 8           2             4    7     1       0.2482126705E-01       4    7    1         0.1339556282E+01      0.1784558265E+01
          0                 9           2             4    7     1       0.1465028487E-01       4    7    1         0.7906709361E+00      0.1049583528E+01
          0                10           2             4    7     1       0.8647436205E-02       4    7    1         0.4666764615E+00      0.6175253727E+00
                                                   Max.-Head-Change                         Max.-Flux-Residual
  Residual-Control   Outer-Iter.   Inner-Iter.     Column Row Layer    Maximum-Head-Change  Column Row Layer    Maximum-Flux-Residual          L2-NORM 
          0                11           2             4    7     1       0.5104689921E-02       4    7    1         0.2754614734E+00      0.3634468527E+00
          0                12           2             4    7     1       0.3013712687E-02       4    7    1         0.1626107258E+00      0.2139816248E+00
          0                13           2             4    7     1       0.1779462722E-02       4    7    1         0.9600396653E-01      0.1260262229E+00
          0                14           2             4    7     1       0.1050828506E-02       4    7    1         0.5668709639E-01      0.7424921181E-01
          0                15           2             4    7     1       0.6206270575E-03       4    7    1         0.3347613324E-01      0.4375883749E-01
          0                16           2             4    7     1       0.3665935707E-03       4    7    1         0.1977161955E-01      0.2579755897E-01
          0                17           2             4    7     1       0.2165675217E-03       4    7    1         0.1167896547E-01      0.1521339105E-01
          0                18           1             4    7     1       0.1279543579E-03       4    7    1         0.6899549051E-02      0.8974357254E-02
          0                19           1             4    7     1       0.7560821362E-04       4    7    1         0.4076525381E-02      0.5295488498E-02

    ------------------------------------------------
       NWT REQUIRED           19 OUTER ITERATIONS 
       AND A TOTAL OF         36 INNER ITERATIONS.
    ------------------------------------------------

 NO OUTPUT CONTROL FOR STRESS PERIOD   46   TIME STEP    4
 
 SOLVING FOR HEAD 
                                                   Max.-Head-Change                         Max.-Flux-Residual
  Residual-Control   Outer-Iter.   Inner-Iter.     Column Row Layer    Maximum-Head-Change  Column Row Layer    Maximum-Flux-Residual          L2-NORM 
          0                 1           2             4    6     1       0.1167967804E+01       4    6    1         0.6286170195E+02      0.1068773706E+03
          0                 2           2             4    8     1       0.5921174619E+00       4    8    1         0.3197764967E+02      0.4797801916E+02
          0                 3           2             4    8     1       0.3825570143E+00       4    8    1         0.2065847477E+02      0.3042865442E+02
          0                 4           2             4    8     1       0.2251441294E+00       4    8    1         0.1218433745E+02      0.1743722571E+02
          0                 5           2             4    8     1       0.1321650834E+00       4    8    1         0.7163978604E+01      0.1016123204E+02
          0                 6           2             4    8     1       0.7756906673E-01       4    8    1         0.4206851386E+01      0.5942757113E+01
          0                 7           2             4    8     1       0.4551043125E-01       4    8    1         0.2468842575E+01      0.3477069485E+01
          0                 8           2             4    8     1       0.2669674108E-01       4    8    1         0.1448433331E+01      0.2034668393E+01
          0                 9           2             5    7     1       0.1213346373E-01       5    7    1         0.6628370195E+00      0.9329788055E+00
          0                10           2             5    7     1       0.7058606763E-02       5    7    1         0.3857047392E+00      0.5012691676E+00
                                                   Max.-Head-Change                         Max.-Flux-Residual
  Residual-Control   Outer-Iter.   Inner-Iter.     Column Row Layer    Maximum-Head-Change  Column Row Layer    Maximum-Flux-Residual          L2-NORM 
          0                11           2             5    7     1       0.4105454097E-02       5    7    1         0.2243726945E+00      0.2859915070E+00
          0                12           2             5    7     1       0.2387582613E-02       5    7    1         0.1304968273E+00      0.1658982296E+00
          0                13           2             5    7     1       0.1388501678E-02       5    7    1         0.7589124540E-01      0.9663598406E-01
          0                14           2             5    7     1       0.8075113387E-03       5    7    1         0.4413459320E-01      0.5634837996E-01
          0                15           2             5    7     1       0.4696551202E-03       5    7    1         0.2566752178E-01      0.3286527932E-01
          0                16           2             5    7     1       0.2731778194E-03       5    7    1         0.1492859054E-01      0.1917021582E-01
          0                17           2             5    7     1       0.1589101399E-03       5    7    1         0.8683416118E-02      0.1118231499E-01
          0                18           1             5    7     1       0.9244835261E-04       5    7    1         0.5051294711E-02      0.6522995338E-02

    ------------------------------------------------
       NWT REQUIRED           18 OUTER ITERATIONS 
       AND A TOTAL OF         35 INNER ITERATIONS.
    ------------------------------------------------

 NO OUTPUT CONTROL FOR STRESS PERIOD   46   TIME STEP    5
 
 SOLVING FOR HEAD 
                                                   Max.-Head-Change                         Max.-Flux-Residual
  Residual-Control   Outer-Iter.   Inner-Iter.     Column Row Layer    Maximum-Head-Change  Column Row Layer    Maximum-Flux-Residual          L2-NORM 
          0                 1           2             4    7     1       0.1858325232E+01       4    7    1         0.9998780440E+02      0.1486020990E+03
          0                 2           2             4    6     1       0.7190362414E+00       4    6    1         0.3862080189E+02      0.6415011950E+02
          0                 3           2             4    6     1       0.3880405939E+00       4    6    1         0.2105378494E+02      0.2413086903E+02
          0                 4           2             4    6     1       0.1527060548E+00       4    6    1         0.8239915193E+01      0.1077977980E+02
          0                 5           2             4    6     1       0.4418576785E-01       4    6    1         0.2382960432E+01      0.3163953087E+01
          0                 6           2             4    6     1       0.1279488615E-01       4    6    1         0.6896617769E+00      0.9316275299E+00
          0                 7           2             4    6     1       0.3707777294E-02       4    6    1         0.1997445613E+00      0.2752774293E+00
          0                 8           2             4    6     1       0.1075259504E-02       4    6    1         0.5789426351E-01      0.8165212627E-01
          0                 9           2             4    6     1       0.3120585593E-03       4    6    1         0.1679260011E-01      0.2432177288E-01
          0                10           1             4    6     1       0.9063251342E-04       4    6    1         0.4874428383E-02      0.7278182511E-02

    ------------------------------------------------
       NWT REQUIRED           10 OUTER ITERATIONS 
       AND A TOTAL OF         19 INNER ITERATIONS.
    ------------------------------------------------

 NO OUTPUT CONTROL FOR STRESS PERIOD   46   TIME STEP    6
 
 SOLVING FOR HEAD 
                                                   Max.-Head-Change                         Max.-Flux-Residual
  Residual-Control   Outer-Iter.   Inner-Iter.     Column Row Layer    Maximum-Head-Change  Column Row Layer    Maximum-Flux-Residual          L2-NORM 
          0                 1           2             4    8     1       0.1779313215E+01       4    8    1         0.9633824334E+02      0.1524603128E+03
          0                 2           2             5    6     1       0.7291407313E+00       5    6    1         0.3986166436E+02      0.6388077866E+02
          0                 3           2             4    7     1       0.2321839493E+00       4    7    1         0.1246028182E+02      0.2011491271E+02
          0                 4           2             4    7     1       0.1726257310E+00       4    7    1         0.9270800534E+01      0.1229662125E+02
          0                 5           2             4    7     1       0.1018611142E+00       4    7    1         0.5501951127E+01      0.6045130690E+01
          0                 6           2             4    7     1       0.5988932163E-01       4    7    1         0.3243270532E+01      0.3391925580E+01
          0                 7           2             4    7     1       0.3515746730E-01       4    7    1         0.1905980110E+01      0.1975987864E+01
          0                 8           2             4    7     1       0.2062742756E-01       4    7    1         0.1118644266E+01      0.1162509887E+01
          0                 9           2             4    7     1       0.1210164325E-01       4    7    1         0.6562647851E+00      0.6859557963E+00
          0                10           2             4    7     1       0.7101029931E-02       4    7    1         0.3850033705E+00      0.4053437088E+00
                                                   Max.-Head-Change                         Max.-Flux-Residual
  Residual-Control   Outer-Iter.   Inner-Iter.     Column Row Layer    Maximum-Head-Change  Column Row Layer    Maximum-Flux-Residual          L2-NORM 
          0                11           2             4    7     1       0.4168022530E-02       4    7    1         0.2259127712E+00      0.2398028177E+00
          0                12           2             4    7     1       0.2447367029E-02       4    7    1         0.1326035930E+00      0.1420289774E+00
          0                13           2             4    7     1       0.1437621861E-02       4    7    1         0.7786341906E-01      0.8421677327E-01
          0                14           2             4    7     1       0.8448445733E-03       4    7    1         0.4573934443E-01      0.4999493914E-01
          0                15           2             4    7     1       0.4967096495E-03       4    7    1         0.2688029271E-01      0.2971411558E-01
          0                16           2             4    7     1       0.2921645431E-03       4    7    1         0.1580419235E-01      0.1768109022E-01
          0                17           1             4    7     1       0.1719318169E-03       4    7    1         0.9296301385E-02      0.1053323806E-01
          0                18           1             4    7     1       0.1012262315E-03       4    7    1         0.5470817932E-02      0.6282259515E-02
          0                19           1             4    7     1       0.5962685365E-04       4    7    1         0.3221088771E-02      0.3751137826E-02

    ------------------------------------------------
       NWT REQUIRED           19 OUTER ITERATIONS 
       AND A TOTAL OF         35 INNER ITERATIONS.
    ------------------------------------------------

 NO OUTPUT CONTROL FOR STRESS PERIOD   46   TIME STEP    7
 
 SOLVING FOR HEAD 
                                                   Max.-Head-Change                         Max.-Flux-Residual
  Residual-Control   Outer-Iter.   Inner-Iter.     Column Row Layer    Maximum-Head-Change  Column Row Layer    Maximum-Flux-Residual          L2-NORM 
          0                 1           2             4    6     1       0.1696282111E+01       4    6    1         0.9218105888E+02      0.1008523328E+03
          0                 2           2             4    6     1       0.4858176351E+00       4    6    1         0.2639540415E+02      0.2862639704E+02
          0                 3           2             4    6     1       0.1040810975E+00       4    6    1         0.5694935321E+01      0.7013339827E+01
          0                 4           2             4    6     1       0.6497921869E-01       4    6    1         0.3483700999E+01      0.5663074721E+01
          0                 5           2             4    6     1       0.1872539219E-01       4    6    1         0.1015220810E+01      0.1253725567E+01
          0                 6           2             4    6     1       0.5397725719E-02       4    6    1         0.2918363307E+00      0.3591070481E+00
          0                 7           2             4    6     1       0.1556379823E-02       4    6    1         0.8415508181E-01      0.1045247312E+00
          0                 8           2             4    6     1       0.4488981215E-03       4    6    1         0.2426673443E-01      0.3045797902E-01
          0                 9           2             4    6     1       0.1295121851E-03       4    6    1         0.6999646425E-02      0.8886694160E-02
          0                10           1             4    6     1       0.3737730813E-04       4    6    1         0.2019631312E-02      0.2596761718E-02

    ------------------------------------------------
       NWT REQUIRED           10 OUTER ITERATIONS 
       AND A TOTAL OF         19 INNER ITERATIONS.
    ------------------------------------------------

 NO OUTPUT CONTROL FOR STRESS PERIOD   46   TIME STEP    8
 
 SOLVING FOR HEAD 
                                                   Max.-Head-Change                         Max.-Flux-Residual
  Residual-Control   Outer-Iter.   Inner-Iter.     Column Row Layer    Maximum-Head-Change  Column Row Layer    Maximum-Flux-Residual          L2-NORM 
          0                 1           2             5    6     1      -0.1460971802E+00       5    6    1        -0.8167633544E+01      0.1838088956E+02
          0                 2           2             4    7     1       0.1653727879E-01       4    7    1         0.9336444633E+00      0.2383665237E+01
          0                 3           2             4    8     1      -0.3846818965E-01       4    8    1        -0.2042349653E+01      0.4619202452E+01
          0                 4           2             4    6     1       0.3737240935E-01       5    8    1         0.2053789868E+01      0.4387605319E+01
          0                 5           2             4    7     1       0.8101852497E-02       4    7    1         0.4646067683E+00      0.5703133444E+00
          0                 6           2             4    7     1       0.2650691705E-02       4    7    1         0.1512947942E+00      0.1711702199E+00
          0                 7           2             4    7     1       0.8668198850E-03       4    7    1         0.4952177139E-01      0.5543933271E-01
          0                 8           2             4    7     1       0.2833432700E-03       4    7    1         0.1619233806E-01      0.1797807797E-01
          0                 9           1             4    7     1       0.9258248678E-04       4    7    1         0.5292374824E-02      0.5834026351E-02

    ------------------------------------------------
       NWT REQUIRED            9 OUTER ITERATIONS 
       AND A TOTAL OF         17 INNER ITERATIONS.
    ------------------------------------------------

 NO OUTPUT CONTROL FOR STRESS PERIOD   46   TIME STEP    9
 
 SOLVING FOR HEAD 
                                                   Max.-Head-Change                         Max.-Flux-Residual
  Residual-Control   Outer-Iter.   Inner-Iter.     Column Row Layer    Maximum-Head-Change  Column Row Layer    Maximum-Flux-Residual          L2-NORM 
          0                 1           2             5    6     1      -0.1366871299E+00       5    6    1        -0.7627561340E+01      0.1750207432E+02
          0                 2           2             4    7     1       0.1462727441E-01       4    7    1         0.8137644833E+00      0.2037890696E+01
          0                 3           2             4    8     1      -0.3818139448E-01       4    8    1        -0.2024059842E+01      0.4712613700E+01
          0                 4           2             5    8     1       0.3725029719E-01       5    8    1         0.2068654324E+01      0.4275673276E+01
          0                 5           2             4    7     1       0.8068833187E-02       4    7    1         0.4589140617E+00      0.5923599750E+00
          0                 6           2             4    7     1       0.2653203460E-02       4    7    1         0.1509077479E+00      0.1841953793E+00
          0                 7           2             4    7     1       0.8716192749E-03       4    7    1         0.4960903876E-01      0.5947731459E-01
          0                 8           2             4    7     1       0.2861012659E-03       4    7    1         0.1629422261E-01      0.1923463651E-01
          0                 9           1             4    7     1       0.9383936695E-04       4    7    1         0.5347519828E-02      0.6227499718E-02

    ------------------------------------------------
       NWT REQUIRED            9 OUTER ITERATIONS 
       AND A TOTAL OF         17 INNER ITERATIONS.
    ------------------------------------------------

 NO OUTPUT CONTROL FOR STRESS PERIOD   46   TIME STEP   10
 
 SOLVING FOR HEAD 
                                                   Max.-Head-Change                         Max.-Flux-Residual
  Residual-Control   Outer-Iter.   Inner-Iter.     Column Row Layer    Maximum-Head-Change  Column Row Layer    Maximum-Flux-Residual          L2-NORM 
          0                 1           2             5    6     1      -0.1278558226E+00       5    6    1        -0.7125049536E+01      0.1658294383E+02
          0                 2           2             4    7     1       0.1286010645E-01       5    6    1         0.7123599105E+00      0.1957925739E+01
          0                 3           2             5    8     1      -0.3808797827E-01       5    8    1        -0.2043222462E+01      0.4736704348E+01
          0                 4           2             4    6     1       0.3363082947E-01       4    6    1         0.1944917794E+01      0.4099579361E+01
          0                 5           2             4    7     1       0.8038193393E-02       4    7    1         0.4552392158E+00      0.6241895379E+00
          0                 6           2             4    7     1       0.2655669182E-02       4    7    1         0.1504701581E+00      0.1998909741E+00
          0                 7           2             4    7     1       0.8761879103E-03       4    7    1         0.4969561433E-01      0.6432049216E-01
          0                 8           2             4    7     1       0.2887325696E-03       4    7    1         0.1639178046E-01      0.2074402194E-01
          0                 9           1             4    7     1       0.9504470739E-04       4    7    1         0.5400366116E-02      0.6702735383E-02

    ------------------------------------------------
       NWT REQUIRED            9 OUTER ITERATIONS 
       AND A TOTAL OF         17 INNER ITERATIONS.
    ------------------------------------------------

 NO OUTPUT CONTROL FOR STRESS PERIOD   46   TIME STEP   11
 
 SOLVING FOR HEAD 
                                                   Max.-Head-Change                         Max.-Flux-Residual
  Residual-Control   Outer-Iter.   Inner-Iter.     Column Row Layer    Maximum-Head-Change  Column Row Layer    Maximum-Flux-Residual          L2-NORM 
          0                 1           2             5    6     1      -0.1194527544E+00       5    6    1        -0.6656368092E+01      0.1557933301E+02
          0                 2           2             5    6     1       0.1148011551E-01       5    6    1         0.6655102100E+00      0.1802833700E+01
          0                 3           2             4    8     1      -0.3760811925E-01       5    8    1        -0.2015066016E+01      0.4720795519E+01
          0                 4           2             4    6     1       0.3362743691E-01       4    6    1         0.1944839841E+01      0.3920754520E+01
          0                 5           2             4    7     1       0.8009417293E-02       4    7    1         0.4518070231E+00      0.7111765491E+00
          0                 6           2             4    7     1       0.2658426461E-02       4    7    1         0.1500578197E+00      0.2277266872E+00
          0                 7           2             4    7     1       0.8809561649E-03       4    7    1         0.4978703114E-01      0.7317870559E-01
          0                 8           2             4    7     1       0.2915166489E-03       4    7    1         0.1649352562E-01      0.2355542120E-01
          0                 9           1             4    7     1       0.9634199058E-04       4    7    1         0.5456383733E-02      0.7593499991E-02

    ------------------------------------------------
       NWT REQUIRED            9 OUTER ITERATIONS 
       AND A TOTAL OF         17 INNER ITERATIONS.
    ------------------------------------------------

 NO OUTPUT CONTROL FOR STRESS PERIOD   46   TIME STEP   12
 
 SOLVING FOR HEAD 
                                                   Max.-Head-Change                         Max.-Flux-Residual
  Residual-Control   Outer-Iter.   Inner-Iter.     Column Row Layer    Maximum-Head-Change  Column Row Layer    Maximum-Flux-Residual          L2-NORM 
          0                 1           2             5    6     1      -0.1116028554E+00       5    6    1        -0.6218648971E+01      0.1466708054E+02
          0                 2           2             5    6     1       0.1072857842E-01       5    6    1         0.6217543786E+00      0.1670975668E+01
          0                 3           2             4    8     1      -0.3735762657E-01       5    8    1        -0.1998362421E+01      0.4710257757E+01
          0                 4           2             4    6     1       0.3362469671E-01       4    6    1         0.1944768468E+01      0.3841989413E+01
          0                 5           2             4    7     1       0.7981083544E-02       4    7    1         0.4489845103E+00      0.7737629833E+00
          0                 6           2             4    7     1       0.2657188056E-02       4    7    1         0.1496128235E+00      0.2471578446E+00
          0                 7           2             4    7     1       0.8830449018E-03       4    7    1         0.4979011204E-01      0.7920609884E-01
          0                 8           2             4    7     1       0.2929736080E-03       4    7    1         0.1654068556E-01      0.2542667550E-01
          0                 9           1             4    7     1       0.9705838054E-04       4    7    1         0.5486125428E-02      0.8175144903E-02

    ------------------------------------------------
       NWT REQUIRED            9 OUTER ITERATIONS 
       AND A TOTAL OF         17 INNER ITERATIONS.
    ------------------------------------------------

 NO OUTPUT CONTROL FOR STRESS PERIOD   46   TIME STEP   13
 
 SOLVING FOR HEAD 
                                                   Max.-Head-Change                         Max.-Flux-Residual
  Residual-Control   Outer-Iter.   Inner-Iter.     Column Row Layer    Maximum-Head-Change  Column Row Layer    Maximum-Flux-Residual          L2-NORM 
          0                 1           2             5    6     1      -0.1042686256E+00       5    6    1        -0.5809772661E+01      0.1382246824E+02
          0                 2           2             5    6     1       0.1002619068E-01       5    6    1         0.5808807744E+00      0.1551496419E+01
          0                 3           2             4    8     1      -0.3712970104E-01       5    8    1        -0.1983126301E+01      0.4700584804E+01
          0                 4           2             4    6     1       0.3362254253E-01       4    6    1         0.1944703281E+01      0.3792727457E+01
          0                 5           2             4    7     1       0.7951588305E-02       4    7    1         0.4468030033E+00      0.8168050117E+00
          0                 6           2             4    7     1       0.2650977367E-02       4    7    1         0.1490965917E+00      0.2604643006E+00
          0                 7           2             4    7     1       0.8821255312E-03       4    7    1         0.4968540637E-01      0.8331172413E-01
          0                 8           2             4    7     1       0.2930307831E-03       4    7    1         0.1652716916E-01      0.2669321465E-01
          0                 9           1             4    7     1       0.9719171826E-04       4    7    1         0.5488369645E-02      0.8565967566E-02

    ------------------------------------------------
       NWT REQUIRED            9 OUTER ITERATIONS 
       AND A TOTAL OF         17 INNER ITERATIONS.
    ------------------------------------------------

 NO OUTPUT CONTROL FOR STRESS PERIOD   46   TIME STEP   14
 
 SOLVING FOR HEAD 
                                                   Max.-Head-Change                         Max.-Flux-Residual
  Residual-Control   Outer-Iter.   Inner-Iter.     Column Row Layer    Maximum-Head-Change  Column Row Layer    Maximum-Flux-Residual          L2-NORM 
          0                 1           2             5    6     1      -0.9741528347E-01       5    6    1        -0.5427789575E+01      0.1303980182E+02
          0                 2           2             5    6     1       0.9369672887E-02       5    6    1         0.5426947029E+00      0.1443188278E+01
          0                 3           2             4    8     1      -0.3692225183E-01       5    8    1        -0.1969232215E+01      0.4691671564E+01
          0                 4           2             4    6     1       0.3362076804E-01       4    6    1         0.1944643352E+01      0.3775543409E+01
          0                 5           2             4    7     1       0.7922551168E-02       4    7    1         0.4450956066E+00      0.8342337509E+00
          0                 6           2             4    7     1       0.2641910463E-02       4    7    1         0.1485575428E+00      0.2657520986E+00
          0                 7           2             4    7     1       0.8793315485E-03       4    7    1         0.4951751539E-01      0.8491208152E-01
          0                 8           2             4    7     1       0.2921810875E-03       4    7    1         0.1647556032E-01      0.2717716397E-01
          0                 9           1             4    7     1       0.9693683304E-04       4    7    1         0.5472713669E-02      0.8712260687E-02

    ------------------------------------------------
       NWT REQUIRED            9 OUTER ITERATIONS 
       AND A TOTAL OF         17 INNER ITERATIONS.
    ------------------------------------------------

 NO OUTPUT CONTROL FOR STRESS PERIOD   46   TIME STEP   15
 
 SOLVING FOR HEAD 
                                                   Max.-Head-Change                         Max.-Flux-Residual
  Residual-Control   Outer-Iter.   Inner-Iter.     Column Row Layer    Maximum-Head-Change  Column Row Layer    Maximum-Flux-Residual          L2-NORM 
          0                 1           2             5    6     1      -0.9100994733E-01       5    6    1        -0.5070856168E+01      0.1231391991E+02
          0                 2           2             5    6     1       0.8755912022E-02       5    6    1         0.5070120408E+00      0.1344960273E+01
          0                 3           2             4    8     1      -0.3673339548E-01       5    8    1        -0.1956567241E+01      0.4683433831E+01
          0                 4           2             4    6     1       0.3361921101E-01       4    6    1         0.1944588856E+01      0.3776786693E+01
          0                 5           2             4    7     1       0.7896900323E-02       4    7    1         0.4435934474E+00      0.8347058403E+00
          0                 6           2             4    7     1       0.2633765078E-02       4    7    1         0.1480809240E+00      0.2658670086E+00
          0                 7           2             4    7     1       0.8767428863E-03       4    7    1         0.4936615148E-01      0.8493769659E-01
          0                 8           2             4    7     1       0.2913577318E-03       4    7    1         0.1642745017E-01      0.2718195407E-01
          0                 9           1             4    7     1       0.9667474788E-04       4    7    1         0.5457409858E-02      0.8712752764E-02

    ------------------------------------------------
       NWT REQUIRED            9 OUTER ITERATIONS 
       AND A TOTAL OF         17 INNER ITERATIONS.
    ------------------------------------------------

 NO OUTPUT CONTROL FOR STRESS PERIOD   46   TIME STEP   16
 
 SOLVING FOR HEAD 
                                                   Max.-Head-Change                         Max.-Flux-Residual
  Residual-Control   Outer-Iter.   Inner-Iter.     Column Row Layer    Maximum-Head-Change  Column Row Layer    Maximum-Flux-Residual          L2-NORM 
          0                 1           2             5    6     1      -0.8502176775E-01       5    6    1        -0.4737244689E+01      0.1164009964E+02
          0                 2           2             5    6     1       0.8181991545E-02       5    6    1         0.4736602136E+00      0.1255813767E+01
          0                 3           2             4    8     1      -0.3656136650E-01       5    8    1        -0.1945024662E+01      0.4675794301E+01
          0                 4           2             4    6     1       0.3361783369E-01       4    6    1         0.1944538866E+01      0.3777983742E+01
          0                 5           2             4    7     1       0.7874262791E-02       4    7    1         0.4422668415E+00      0.8351677500E+00
          0                 6           2             4    7     1       0.2626582536E-02       4    7    1         0.1476603550E+00      0.2659824181E+00
          0                 7           2             4    7     1       0.8744621311E-03       4    7    1         0.4923269887E-01      0.8496463311E-01
          0                 8           2             4    7     1       0.2906329195E-03       4    7    1         0.1638506853E-01      0.2718752377E-01
          0                 9           1             4    7     1       0.9644422556E-04       4    7    1         0.5443939632E-02      0.8713606595E-02

    ------------------------------------------------
       NWT REQUIRED            9 OUTER ITERATIONS 
       AND A TOTAL OF         17 INNER ITERATIONS.
    ------------------------------------------------

 NO OUTPUT CONTROL FOR STRESS PERIOD   46   TIME STEP   17
 
 SOLVING FOR HEAD 
                                                   Max.-Head-Change                         Max.-Flux-Residual
  Residual-Control   Outer-Iter.   Inner-Iter.     Column Row Layer    Maximum-Head-Change  Column Row Layer    Maximum-Flux-Residual          L2-NORM 
          0                 1           2             5    6     1      -0.7942331434E-01       5    6    1        -0.4425416216E+01      0.1101411833E+02
          0                 2           2             5    6     1       0.7645309299E-02       5    6    1         0.4424855028E+00      0.1174863427E+01
          0                 3           2             5    7     1      -0.3642963860E-01       5    8    1        -0.1934510015E+01      0.4668691618E+01
          0                 4           2             4    6     1       0.3361662459E-01       4    6    1         0.1944493373E+01      0.3779134043E+01
          0                 5           2             4    7     1       0.7854335669E-02       4    7    1         0.4410981674E+00      0.8356181836E+00
          0                 6           2             4    7     1       0.2620265876E-02       4    7    1         0.1472901999E+00      0.2660975641E+00
          0                 7           2             4    7     1       0.8724582206E-03       4    7    1         0.4911535332E-01      0.8499253787E-01
          0                 8           2             4    7     1       0.2899966920E-03       4    7    1         0.1634783731E-01      0.2719372576E-01
          0                 9           1             4    7     1       0.9624206989E-04       4    7    1         0.5432117605E-02      0.8714761521E-02

    ------------------------------------------------
       NWT REQUIRED            9 OUTER ITERATIONS 
       AND A TOTAL OF         17 INNER ITERATIONS.
    ------------------------------------------------

 NO OUTPUT CONTROL FOR STRESS PERIOD   46   TIME STEP   18
 
 SOLVING FOR HEAD 
                                                   Max.-Head-Change                         Max.-Flux-Residual
  Residual-Control   Outer-Iter.   Inner-Iter.     Column Row Layer    Maximum-Head-Change  Column Row Layer    Maximum-Flux-Residual          L2-NORM 
          0                 1           2             5    6     1      -0.7418732327E-01       5    6    1        -0.4133843897E+01      0.1043205147E+02
          0                 2           2             5    6     1       0.7143278700E-02       5    6    1         0.4133353759E+00      0.1101290091E+01
          0                 3           2             5    7     1      -0.3633179030E-01       5    8    1        -0.1924932510E+01      0.4662070679E+01
          0                 4           2             4    6     1       0.3361556066E-01       4    6    1         0.1944451550E+01      0.3780237431E+01
          0                 5           2             4    7     1       0.7836834566E-02       4    7    1         0.4400708830E+00      0.8360560950E+00
          0                 6           2             4    7     1       0.2614724053E-02       4    7    1         0.1469651671E+00      0.2662117740E+00
          0                 7           2             4    7     1       0.8707019826E-03       4    7    1         0.4901242061E-01      0.8502109234E-01
          0                 8           2             4    7     1       0.2894396936E-03       4    7    1         0.1631521359E-01      0.2720042716E-01
          0                 9           1             4    7     1       0.9606527878E-04       4    7    1         0.5421769663E-02      0.8716165547E-02

    ------------------------------------------------
       NWT REQUIRED            9 OUTER ITERATIONS 
       AND A TOTAL OF         17 INNER ITERATIONS.
    ------------------------------------------------

 NO OUTPUT CONTROL FOR STRESS PERIOD   46   TIME STEP   19
 
 SOLVING FOR HEAD 
                                                   Max.-Head-Change                         Max.-Flux-Residual
  Residual-Control   Outer-Iter.   Inner-Iter.     Column Row Layer    Maximum-Head-Change  Column Row Layer    Maximum-Flux-Residual          L2-NORM 
          0                 1           2             5    6     1      -0.6928967138E-01       5    6    1        -0.3861175868E+01      0.9890408663E+01
          0                 2           2             4    5     1      -0.6726642664E-02       5    6    1         0.3860747782E+00      0.1034368790E+01
          0                 3           2             5    7     1      -0.3624121789E-01       5    7    1        -0.1917396922E+01      0.4655886498E+01
          0                 4           2             4    6     1       0.3361463573E-01       4    6    1         0.1944413205E+01      0.3781295089E+01
          0                 5           2             4    7     1       0.7821512788E-02       4    7    1         0.4391706322E+00      0.8364809917E+00
          0                 6           2             4    7     1       0.2609878136E-02       4    7    1         0.1466806672E+00      0.2663245952E+00
          0                 7           2             4    7     1       0.8691681418E-03       4    7    1         0.4892243212E-01      0.8505006117E-01
          0                 8           2             4    7     1       0.2889538247E-03       4    7    1         0.1628672703E-01      0.2720752457E-01
          0                 9           1             4    7     1       0.9591125483E-04       4    7    1         0.5412745064E-02      0.8717776976E-02

    ------------------------------------------------
       NWT REQUIRED            9 OUTER ITERATIONS 
       AND A TOTAL OF         17 INNER ITERATIONS.
    ------------------------------------------------

 NO OUTPUT CONTROL FOR STRESS PERIOD   46   TIME STEP   20
 
 SOLVING FOR HEAD 
                                                   Max.-Head-Change                         Max.-Flux-Residual
  Residual-Control   Outer-Iter.   Inner-Iter.     Column Row Layer    Maximum-Head-Change  Column Row Layer    Maximum-Flux-Residual          L2-NORM 
          0                 1           2             4    5     1       0.6576080445E-01       5    6    1        -0.3606140733E+01      0.9385955024E+01
          0                 2           2             4    5     1      -0.6395857873E-02       5    6    1         0.3605766849E+00      0.9734364985E+00
          0                 3           2             5    7     1      -0.3615723996E-01       5    7    1        -0.1912743010E+01      0.4650096437E+01
          0                 4           2             4    6     1       0.3361382997E-01       4    6    1         0.1944378161E+01      0.3782307825E+01
          0                 5           2             4    7     1       0.7808143871E-02       4    7    1         0.4383842382E+00      0.8368924567E+00
          0                 6           2             4    7     1       0.2605655652E-02       4    7    1         0.1464324865E+00      0.2664356253E+00
          0                 7           2             4    7     1       0.8678334857E-03       4    7    1         0.4884403932E-01      0.8507923205E-01
          0                 8           2             4    7     1       0.2885316447E-03       4    7    1         0.1626194568E-01      0.2721492450E-01
          0                 9           1             4    7     1       0.9577761037E-04       4    7    1         0.5404905320E-02      0.8719558019E-02

    ------------------------------------------------
       NWT REQUIRED            9 OUTER ITERATIONS 
       AND A TOTAL OF         17 INNER ITERATIONS.
    ------------------------------------------------

 NO OUTPUT CONTROL FOR STRESS PERIOD   46   TIME STEP   21
 
 SOLVING FOR HEAD 
                                                   Max.-Head-Change                         Max.-Flux-Residual
  Residual-Control   Outer-Iter.   Inner-Iter.     Column Row Layer    Maximum-Head-Change  Column Row Layer    Maximum-Flux-Residual          L2-NORM 
          0                 1           2             4    5     1       0.6253452821E-01       4    5    1         0.3416962529E+01      0.8915769357E+01
          0                 2           2             4    5     1      -0.6082178345E-02       4    5    1        -0.3416844142E+00      0.9178985973E+00
          0                 3           2             5    7     1      -0.3607928115E-01       5    7    1        -0.1908427479E+01      0.4644667085E+01
          0                 4           2             4    6     1       0.3361313329E-01       4    6    1         0.1944346270E+01      0.3783276649E+01
          0                 5           2             4    7     1       0.7796521549E-02       4    7    1         0.4376997026E+00      0.8372901560E+00
          0                 6           2             4    7     1       0.2601990572E-02       4    7    1         0.1462167873E+00      0.2665445086E+00
          0                 7           2             4    7     1       0.8666768606E-03       4    7    1         0.4877601355E-01      0.8510841485E-01
          0                 8           2             4    7     1       0.2881663702E-03       4    7    1         0.1624047584E-01      0.2722254271E-01
          0                 9           1             4    7     1       0.9566216933E-04       4    7    1         0.5398124203E-02      0.8721474647E-02

    ------------------------------------------------
       NWT REQUIRED            9 OUTER ITERATIONS 
       AND A TOTAL OF         17 INNER ITERATIONS.
    ------------------------------------------------

 NO OUTPUT CONTROL FOR STRESS PERIOD   46   TIME STEP   22
 
 SOLVING FOR HEAD 
                                                   Max.-Head-Change                         Max.-Flux-Residual
  Residual-Control   Outer-Iter.   Inner-Iter.     Column Row Layer    Maximum-Head-Change  Column Row Layer    Maximum-Flux-Residual          L2-NORM 
          0                 1           2             4    5     1       0.5947581098E-01       4    5    1         0.3249331673E+01      0.8477207212E+01
          0                 2           2             4    5     1      -0.5784778576E-02       4    5    1        -0.3249226624E+00      0.8672229964E+00
          0                 3           2             5    7     1      -0.3600686903E-01       5    7    1        -0.1904423458E+01      0.4639567373E+01
          0                 4           2             4    6     1       0.3361253982E-01       4    6    1         0.1944317279E+01      0.3784202665E+01
          0                 5           2             4    7     1       0.7786211398E-02       4    7    1         0.4370916288E+00      0.8376739197E+00
          0                 6           2             4    7     1       0.2598744609E-02       4    7    1         0.1460254948E+00      0.2666506251E+00
          0                 7           2             4    7     1       0.8660738714E-03       4    7    1         0.4872501278E-01      0.8513819263E-01
          0                 8           2             4    7     1       0.2880657404E-03       4    7    1         0.1622794899E-01      0.2723136597E-01
          0                 9           1             4    7     1       0.9566926892E-04       4    7    1         0.5395913500E-02      0.8724325254E-02

    ------------------------------------------------
       NWT REQUIRED            9 OUTER ITERATIONS 
       AND A TOTAL OF         17 INNER ITERATIONS.
    ------------------------------------------------

 NO OUTPUT CONTROL FOR STRESS PERIOD   46   TIME STEP   23
 
 SOLVING FOR HEAD 
                                                   Max.-Head-Change                         Max.-Flux-Residual
  Residual-Control   Outer-Iter.   Inner-Iter.     Column Row Layer    Maximum-Head-Change  Column Row Layer    Maximum-Flux-Residual          L2-NORM 
          0                 1           2             4    5     1       0.5657577072E-01       4    5    1         0.3090389877E+01      0.8067831342E+01
          0                 2           2             4    5     1      -0.5502793634E-02       4    5    1        -0.3090296657E+00      0.8210278830E+00
          0                 3           2             5    7     1      -0.3594461011E-01       5    7    1        -0.1900938714E+01      0.4634771799E+01
          0                 4           2             4    6     1       0.3361206582E-01       4    6    1         0.1944291192E+01      0.3785089739E+01
          0                 5           2             4    7     1       0.7778302593E-02       4    7    1         0.4365787742E+00      0.8380469866E+00
          0                 6           2             4    7     1       0.2596479456E-02       4    7    1         0.1458602687E+00      0.2667556500E+00
          0                 7           2             4    7     1       0.8651169771E-03       4    7    1         0.4866871981E-01      0.8516709330E-01
          0                 8           2             4    7     1       0.2877636710E-03       4    7    1         0.1621019135E-01      0.2723911280E-01
          0                 9           1             4    7     1       0.9557383460E-04       4    7    1         0.5390307150E-02      0.8726348691E-02

    ------------------------------------------------
       NWT REQUIRED            9 OUTER ITERATIONS 
       AND A TOTAL OF         17 INNER ITERATIONS.
    ------------------------------------------------

 NO OUTPUT CONTROL FOR STRESS PERIOD   46   TIME STEP   24
 
 SOLVING FOR HEAD 
                                                   Max.-Head-Change                         Max.-Flux-Residual
  Residual-Control   Outer-Iter.   Inner-Iter.     Column Row Layer    Maximum-Head-Change  Column Row Layer    Maximum-Flux-Residual          L2-NORM 
          0                 1           2             4    5     1       0.5382627682E-01       4    5    1         0.2939691563E+01      0.7685521486E+01
          0                 2           2             6    7     1      -0.5258487086E-02       4    5    1        -0.2939608841E+00      0.7787396027E+00
          0                 3           2             5    7     1      -0.3588302749E-01       5    7    1        -0.1897555493E+01      0.4630252712E+01
          0                 4           2             4    6     1       0.3361164104E-01       4    6    1         0.1944267471E+01      0.3785936580E+01
          0                 5           2             4    7     1       0.7770959403E-02       4    7    1         0.4361451344E+00      0.8384044607E+00
          0                 6           2             4    7     1       0.2594171683E-02       4    7    1         0.1457240888E+00      0.2668572642E+00
          0                 7           2             4    7     1       0.8643912282E-03       4    7    1         0.4862591946E-01      0.8519566239E-01
          0                 8           2             4    7     1       0.2875352877E-03       4    7    1         0.1619673029E-01      0.2724705346E-01
          0                 9           1             4    7     1       0.9550191773E-04       4    7    1         0.5386070729E-02      0.8728525288E-02

    ------------------------------------------------
       NWT REQUIRED            9 OUTER ITERATIONS 
       AND A TOTAL OF         17 INNER ITERATIONS.
    ------------------------------------------------

 NO OUTPUT CONTROL FOR STRESS PERIOD   46   TIME STEP   25
 
 SOLVING FOR HEAD 
                                                   Max.-Head-Change                         Max.-Flux-Residual
  Residual-Control   Outer-Iter.   Inner-Iter.     Column Row Layer    Maximum-Head-Change  Column Row Layer    Maximum-Flux-Residual          L2-NORM 
          0                 1           2             6    7     1       0.5144562903E-01       4    5    1         0.2796829458E+01      0.7328097057E+01
          0                 2           2             6    7     1      -0.5040115365E-02       4    5    1        -0.2796756056E+00      0.7399732823E+00
          0                 3           2             5    7     1      -0.3582526101E-01       5    7    1        -0.1894384324E+01      0.4625991729E+01
          0                 4           2             4    6     1       0.3361128549E-01       4    6    1         0.1944246000E+01      0.3786744850E+01
          0                 5           2             4    7     1       0.7764696224E-02       4    7    1         0.4357744203E+00      0.8387481762E+00
          0                 6           2             4    7     1       0.2592208903E-02       4    7    1         0.1456079934E+00      0.2669559200E+00
          0                 7           2             4    7     1       0.8637757709E-03       4    7    1         0.4858953539E-01      0.8522373554E-01
          0                 8           2             4    7     1       0.2873421916E-03       4    7    1         0.1618532068E-01      0.2725497443E-01
          0                 9           1             4    7     1       0.9544130043E-04       4    7    1         0.5382490748E-02      0.8730749544E-02

    ------------------------------------------------
       NWT REQUIRED            9 OUTER ITERATIONS 
       AND A TOTAL OF         17 INNER ITERATIONS.
    ------------------------------------------------

 NO OUTPUT CONTROL FOR STRESS PERIOD   46   TIME STEP   26
 
 SOLVING FOR HEAD 
                                                   Max.-Head-Change                         Max.-Flux-Residual
  Residual-Control   Outer-Iter.   Inner-Iter.     Column Row Layer    Maximum-Head-Change  Column Row Layer    Maximum-Flux-Residual          L2-NORM 
          0                 1           2             6    7     1       0.4935062783E-01       6    7    1         0.2670401188E+01      0.6993727447E+01
          0                 2           2             6    7     1      -0.4832215969E-02       6    7    1        -0.2670429187E+00      0.7043957739E+00
          0                 3           2             5    7     1      -0.3577101518E-01       5    7    1        -0.1891408624E+01      0.4621969504E+01
          0                 4           2             4    6     1       0.3361098995E-01       4    6    1         0.1944226478E+01      0.3787516396E+01
          0                 5           2             4    7     1       0.7759396696E-02       4    7    1         0.4354598710E+00      0.8390785488E+00
          0                 6           2             4    7     1       0.2590553821E-02       4    7    1         0.1455098175E+00      0.2670516113E+00
          0                 7           2             4    7     1       0.8632586439E-03       4    7    1         0.4855887363E-01      0.8525126581E-01
          0                 8           2             4    7     1       0.2871805427E-03       4    7    1         0.1617573990E-01      0.2726284678E-01
          0                 9           1             4    7     1       0.9539074767E-04       4    7    1         0.5379495708E-02      0.8732976168E-02

    ------------------------------------------------
       NWT REQUIRED            9 OUTER ITERATIONS 
       AND A TOTAL OF         17 INNER ITERATIONS.
    ------------------------------------------------

 NO OUTPUT CONTROL FOR STRESS PERIOD   46   TIME STEP   27
 
 SOLVING FOR HEAD 
                                                   Max.-Head-Change                         Max.-Flux-Residual
  Residual-Control   Outer-Iter.   Inner-Iter.     Column Row Layer    Maximum-Head-Change  Column Row Layer    Maximum-Flux-Residual          L2-NORM 
          0                 1           2             6    7     1       0.4735560385E-01       6    7    1         0.2561846217E+01      0.6560360055E+01
          0                 2           2             6    7     1      -0.4634339622E-02       6    7    1        -0.2561872786E+00      0.6561841115E+00
          0                 3           2             5    7     1      -0.3572088989E-01       5    7    1        -0.1888652238E+01      0.4604960806E+01
          0                 4           2             4    6     1       0.3749571283E-01       4    6    1         0.2055386428E+01      0.3845046705E+01
          0                 5           2             4    7     1       0.7753083765E-02       4    7    1         0.4368278587E+00      0.8524516628E+00
          0                 6           2             4    7     1       0.2588566363E-02       4    7    1         0.1453072971E+00      0.2671437561E+00
          0                 7           2             4    7     1       0.8626323010E-03       4    7    1         0.4852474069E-01      0.8527234807E-01
          0                 8           2             4    7     1       0.2869830225E-03       4    7    1         0.1616477193E-01      0.2726848726E-01
          0                 9           1             4    7     1       0.9532841748E-04       4    7    1         0.5376056654E-02      0.8734494688E-02

    ------------------------------------------------
       NWT REQUIRED            9 OUTER ITERATIONS 
       AND A TOTAL OF         17 INNER ITERATIONS.
    ------------------------------------------------

 NO OUTPUT CONTROL FOR STRESS PERIOD   46   TIME STEP   28
 
 SOLVING FOR HEAD 
                                                   Max.-Head-Change                         Max.-Flux-Residual
  Residual-Control   Outer-Iter.   Inner-Iter.     Column Row Layer    Maximum-Head-Change  Column Row Layer    Maximum-Flux-Residual          L2-NORM 
          0                 1           2             6    7     1       0.4545632855E-01       6    7    1         0.2458482012E+01      0.6120873356E+01
          0                 2           2             4    6     1      -0.6230908425E-02       4    6    1        -0.3384927511E+00      0.6917065330E+00
          0                 3           2             4    6     1      -0.3703122020E-01       4    6    1        -0.1964944752E+01      0.4649134825E+01
          0                 4           2             5    6     1       0.3307229106E-01       5    6    1         0.1941432537E+01      0.3643349521E+01
          0                 5           2             4    7     1       0.7779505816E-02       4    7    1         0.4342706099E+00      0.8568170929E+00
          0                 6           2             4    7     1       0.2610675534E-02       4    7    1         0.1460273337E+00      0.2772026436E+00
          0                 7           2             4    7     1       0.8741740912E-03       4    7    1         0.4898239295E-01      0.8989434245E-01
          0                 8           2             4    7     1       0.2921488227E-03       4    7    1         0.1639505103E-01      0.2919674722E-01
          0                 9           1             4    7     1       0.9747000590E-04       4    7    1         0.5477293946E-02      0.9495059849E-02

    ------------------------------------------------
       NWT REQUIRED            9 OUTER ITERATIONS 
       AND A TOTAL OF         17 INNER ITERATIONS.
    ------------------------------------------------

 NO OUTPUT CONTROL FOR STRESS PERIOD   46   TIME STEP   29
 
 SOLVING FOR HEAD 
                                                   Max.-Head-Change                         Max.-Flux-Residual
  Residual-Control   Outer-Iter.   Inner-Iter.     Column Row Layer    Maximum-Head-Change  Column Row Layer    Maximum-Flux-Residual          L2-NORM 
          0                 1           2             6    7     1       0.4364806296E-01       6    7    1         0.2360052178E+01      0.5791175066E+01
          0                 2           2             6    7     1      -0.4266563396E-02       6    7    1        -0.2360076000E+00      0.6075815500E+00
          0                 3           2             4    6     1      -0.3624031831E-01       4    6    1        -0.1921821803E+01      0.4627147867E+01
          0                 4           2             5    6     1       0.3298443731E-01       5    6    1         0.1941446942E+01      0.3475328530E+01
          0                 5           2             4    7     1       0.7806926973E-02       4    7    1         0.4317724631E+00      0.9452371603E+00
          0                 6           2             4    7     1       0.2644971518E-02       4    7    1         0.1466413851E+00      0.3077342332E+00
          0                 7           2             4    7     1       0.8937678830E-03       4    7    1         0.4965595529E-01      0.1005099845E+00
          0                 8           2             4    7     1       0.3013316136E-03       4    7    1         0.1677172868E-01      0.3290380568E-01
          0                 9           1             4    7     1       0.1013934077E-03       4    7    1         0.5652293220E-02      0.1079305432E-01
          0                10           1             4    7     1       0.3405876860E-04       4    7    1         0.1901240436E-02      0.3546354408E-02

    ------------------------------------------------
       NWT REQUIRED           10 OUTER ITERATIONS 
       AND A TOTAL OF         18 INNER ITERATIONS.
    ------------------------------------------------

 NO OUTPUT CONTROL FOR STRESS PERIOD   46   TIME STEP   30



 STREAM LISTING     PERIOD     46   STEP       30

 LAYER ROW COL. STREAM  RCH.  FLOW INTO     FLOW TO   FLOW OUT OF   OVRLND.     DIRECT     STREAM       STREAM     STREAM     STREAM   STREAMBED  STREAMBED
                SEG.NO.  NO.  STRM. RCH.    AQUIFER    STRM. RCH.    RUNOFF     PRECIP       ET          HEAD       DEPTH      WIDTH   CONDCTNC.   GRADIENT

   1    1    1     1     1    1.8749E+01  2.1264E-01   1.8537E+01  0.000E+00  0.000E+00  0.000E+00  1.09413E+03  1.078E+00  1.159E+01  5.215E-02  1.359E+00
   1    2    2     1     2    1.8537E+01  3.2801E-01   1.8209E+01  0.000E+00  0.000E+00  0.000E+00  1.08913E+03  1.073E+00  1.150E+01  8.053E-02  1.358E+00
   1    3    3     1     3    1.8209E+01  2.7848E-01   1.7930E+01  0.000E+00  0.000E+00  0.000E+00  1.08349E+03  1.068E+00  1.141E+01  6.845E-02  1.356E+00
   1    3    4     1     4    1.7930E+01  2.5541E-01   1.7675E+01  0.000E+00  0.000E+00  0.000E+00  1.07847E+03  1.064E+00  1.132E+01  6.285E-02  1.355E+00
   1    4    5     2     1    1.5675E+01  3.0476E-01   1.5370E+01  0.000E+00  0.000E+00  0.000E+00  1.07284E+03  9.072E-01  1.200E+01  7.800E-02  1.302E+00
   1    5    6     2     2    1.5370E+01  2.3387E-01   1.5136E+01  0.000E+00  0.000E+00  0.000E+00  1.06741E+03  8.978E-01  1.200E+01  6.000E-02  1.299E+00
   1    6    6     2     3    1.5136E+01  2.3337E-01   1.4903E+01  0.000E+00  0.000E+00  0.000E+00  1.06268E+03  8.895E-01  1.200E+01  6.000E-02  1.296E+00
   1    7    6     2     4    1.4903E+01  2.3287E-01   1.4670E+01  0.000E+00  0.000E+00  0.000E+00  1.05796E+03  8.812E-01  1.200E+01  6.000E-02  1.294E+00
   1    8    6     2     5    1.4670E+01  2.3237E-01   1.4438E+01  0.000E+00  0.000E+00  0.000E+00  1.05323E+03  8.728E-01  1.200E+01  6.000E-02  1.291E+00
   1    3    5     3     1    2.0000E+00  2.8252E-01   1.7175E+00  0.000E+00  0.000E+00  0.000E+00  1.07555E+03  1.909E+00  9.636E+00  7.227E-02  1.955E+00
   1    3    6     3     2    1.7175E+00  2.4905E-01   1.4684E+00  0.000E+00  0.000E+00  0.000E+00  1.07264E+03  1.727E+00  8.909E+00  6.682E-02  1.864E+00
   1    3    7     3     3    1.4684E+00  1.9718E-01   1.2712E+00  0.000E+00  0.000E+00  0.000E+00  1.06987E+03  1.555E+00  8.218E+00  5.547E-02  1.777E+00
   1    4    8     3     4    1.2712E+00  2.2567E-01   1.0456E+00  0.000E+00  0.000E+00  0.000E+00  1.06682E+03  1.364E+00  7.455E+00  6.709E-02  1.682E+00
   1    5    8     3     5    1.0456E+00  1.5790E-01   8.8768E-01  0.000E+00  0.000E+00  0.000E+00  1.06362E+03  1.164E+00  6.655E+00  4.991E-02  1.582E+00
   1    6    8     3     6    8.8768E-01  5.5980E-02   8.3170E-01  0.000E+00  0.000E+00  0.000E+00  1.06158E+03  1.036E+00  6.145E+00  1.844E-02  1.518E+00
   1    5   10     4     1    1.0000E+01  9.0919E-02   9.9091E+00  0.000E+00  0.000E+00  0.000E+00  1.07836E+03  6.368E-01  1.000E+01  2.500E-02  1.212E+00
   1    5    9     4     2    9.9091E+00  1.8158E-01   9.7275E+00  0.000E+00  0.000E+00  0.000E+00  1.07154E+03  6.315E-01  1.000E+01  5.000E-02  1.211E+00
   1    6    8     4     3    9.7275E+00  1.2689E-01   9.6006E+00  0.000E+00  0.000E+00  0.000E+00  1.06381E+03  6.256E-01  1.000E+01  3.500E-02  1.209E+00
   1    6    8     5     1    1.0432E+01  2.2686E-01   1.0205E+01  0.000E+00  0.000E+00  0.000E+00  1.05868E+03  6.790E-01  1.542E+01  6.166E-02  1.226E+00
   1    7    7     5     2    1.0205E+01  2.7894E-01   9.9265E+00  0.000E+00  0.000E+00  0.000E+00  1.05417E+03  6.732E-01  1.519E+01  7.594E-02  1.224E+00
   1    8    7     5     3    9.9265E+00  1.9221E-01   9.7343E+00  0.000E+00  0.000E+00  0.000E+00  1.04992E+03  6.676E-01  1.497E+01  5.241E-02  1.223E+00
   1    8    6     5     4    9.7343E+00  1.3577E-01   9.5985E+00  0.000E+00  0.000E+00  0.000E+00  1.04691E+03  6.637E-01  1.482E+01  3.706E-02  1.221E+00
   1    9    6     6     1    1.2828E+01  2.2883E-01   1.2599E+01  0.000E+00  0.000E+00  0.000E+00  1.04354E+03  8.138E-01  1.200E+01  6.000E-02  1.271E+00
   1   10    7     6     2    1.2599E+01  2.2830E-01   1.2371E+01  0.000E+00  0.000E+00  0.000E+00  1.03899E+03  8.050E-01  1.200E+01  6.000E-02  1.268E+00
   1   11    7     6     3    1.2371E+01  2.2777E-01   1.2143E+01  0.000E+00  0.000E+00  0.000E+00  1.03443E+03  7.962E-01  1.200E+01  6.000E-02  1.265E+00
   1   12    7     6     4    1.2143E+01  2.2724E-01   1.1916E+01  0.000E+00  0.000E+00  0.000E+00  1.02988E+03  7.873E-01  1.200E+01  6.000E-02  1.262E+00
   1   13    7     6     5    1.1916E+01 -9.8906E-02   1.2015E+01  0.000E+00  0.000E+00  0.000E+00  1.02669E+03  7.847E-01  1.200E+01  2.400E-01 -1.374E-01
   1   14    9     7     1    1.5000E+02  1.3439E+00   1.4866E+02  0.000E+00  0.000E+00  0.000E+00  1.03987E+03  2.288E+00  5.529E+01  5.593E-01  8.009E-01
   1   13    8     7     2    1.4866E+02  1.8289E+00   1.4683E+02  0.000E+00  0.000E+00  0.000E+00  1.03478E+03  2.279E+00  5.526E+01  6.148E-01  9.916E-01
   1   13    7     7     3    1.4683E+02  1.4430E+00   1.4538E+02  0.000E+00  0.000E+00  0.000E+00  1.02969E+03  2.271E+00  5.522E+01  5.585E-01  8.613E-01
   1   13    6     8     1    1.5740E+02  8.1567E-01   1.5658E+02  0.000E+00  0.000E+00  0.000E+00  1.02474E+03  2.865E+00  4.155E+01  4.234E-01  6.422E-01
   1   13    5     8     2    1.5658E+02  8.7978E-02   1.5650E+02  0.000E+00  0.000E+00  0.000E+00  1.01849E+03  2.862E+00  4.150E+01  4.229E-01  6.934E-02
   1   13    4     8     3    1.5650E+02 -2.7156E+00   1.5921E+02  0.000E+00  0.000E+00  0.000E+00  1.01225E+03  2.871E+00  4.163E+01  4.243E+00 -2.134E-01
   1   13    3     8     4    1.5921E+02 -3.7772E+00   1.6299E+02  0.000E+00  0.000E+00  0.000E+00  1.00602E+03  2.893E+00  4.195E+01  4.275E+00 -2.945E-01
   1   13    2     8     5    1.6299E+02 -2.6082E+00   1.6560E+02  0.000E+00  0.000E+00  0.000E+00  9.99790E+02  2.915E+00  4.226E+01  4.307E+00 -2.019E-01
   1   13    1     8     6    1.6560E+02 -1.9843E+00   1.6758E+02  0.000E+00  0.000E+00  0.000E+00  9.94805E+02  2.930E+00  4.248E+01  2.597E+00 -2.546E-01
   1    8    6     9     1    1.1208E+01  0.0000E+00   1.1208E+01  0.000E+00  0.000E+00  0.000E+00  1.08118E+03  2.427E+00  4.000E+00  0.000E+00  1.809E+00
   1    8    5     9     2    1.1208E+01  0.0000E+00   1.1208E+01  0.000E+00  0.000E+00  0.000E+00  1.08068E+03  2.427E+00  4.000E+00  0.000E+00  1.809E+00





UNSATURATED ZONE PACKAGE VOLUMETRIC BUDGET FOR  TIME STEP    30 STRESS PERIOD   46
  ------------------------------------------------------------------------------



     CUMULATIVE VOLUMES      L**3       RATES FOR THIS TIME STEP      L**3/T
     ------------------                 ------------------------

           IN:                                      IN:
           ---                                      ---
        INFILTRATION =  5846612385.3292          INFILTRATION =          12.0557

          OUT:                                     OUT:
          ----                                     ----
              UZF ET =  1706467101.3005                UZF ET =          12.0675
        UZF RECHARGE =  3681042269.2659          UZF RECHARGE =           6.6655

            IN - OUT =   459103014.7628              IN - OUT =          -6.6773

          STORAGE:                                 STORAGE:
          --------                                 --------
      STORAGE CHANGE =   459085400.2152        STORAGE CHANGE =          -6.6773

 PERCENT DISCREPANCY IS DIFFERENCE BETWEEN IN-OUT MINUS CHANGE IN STORAGE
 DIVIDED BY THE AVERAGE OF IN AND OUT TIMES 100

 PERCENT DISCREPANCY =           0.00     PERCENT DISCREPANCY =           0.00






1
  VOLUMETRIC BUDGET FOR AGRICULTURAL FIELDS AT  END OF TIME STEP   30, STRESS PERIOD  46
  ------------------------------------------------------------------------------

     CUMULATIVE VOLUMES      L**3       RATES FOR THIS TIME STEP      L**3/T
     ------------------                 ------------------------

           IN:                                      IN:
           ---                                      ---
           AG WELLS      =  3861166848.0000             AG WELLS      =           0.0000
      DIVERSION SEGMENTS =  1885050368.0000        DIVERSION SEGMENTS =          11.2080
           GW IRRIGATION =           0.0000             GW IRRIGATION =           0.0000
           SW IRRIGATION =           0.0000             SW IRRIGATION =           0.0000
        SYSTEM LOSSES GW =           0.0000          SYSTEM LOSSES GW =           0.0000
        SYSTEM LOSSES SW =           0.0000          SYSTEM LOSSES SW =           0.0000

                TOTAL IN =  5746216960.0000                  TOTAL IN =          11.2080

          OUT:                                     OUT:
          ----                                     ----
           AG WELLS      =           0.0000             AG WELLS      =           0.0000
      DIVERSION SEGMENTS =           0.0000        DIVERSION SEGMENTS =           0.0000
           GW IRRIGATION =  3861166848.0000             GW IRRIGATION =           0.0000
           SW IRRIGATION =  1885083008.0000             SW IRRIGATION =          11.2082
        SYSTEM LOSSES GW =           0.0000          SYSTEM LOSSES GW =           0.0000
        SYSTEM LOSSES SW =           0.0000          SYSTEM LOSSES SW =           0.0000

               TOTAL OUT =  5746249728.0000                 TOTAL OUT =          11.2082

                IN - OUT =      -32768.0000                  IN - OUT =      -2.2411E-04

     PERCENT DISCREPANCY =          -0.00         PERCENT DISCREPANCY =          -0.00



1
  VOLUMETRIC BUDGET FOR ENTIRE MODEL AT END OF TIME STEP   30, STRESS PERIOD  46
  ------------------------------------------------------------------------------

     CUMULATIVE VOLUMES      L**3       RATES FOR THIS TIME STEP      L**3/T
     ------------------                 ------------------------

           IN:                                      IN:
           ---                                      ---
             STORAGE     =  3952321792.0000               STORAGE     =           9.9992
       CONSTANT HEAD     =           0.0000         CONSTANT HEAD     =           0.0000
     HEAD DEP BOUNDS     =    33900492.0000       HEAD DEP BOUNDS     =           0.2863
      STREAM LEAKAGE     =  1414763904.0000        STREAM LEAKAGE     =          11.1448
        UZF RECHARGE     =  3681041664.0000          UZF RECHARGE     =           6.6655
               GW ET     =           0.0000                 GW ET     =           0.0000
     SURFACE LEAKAGE     =           0.0000       SURFACE LEAKAGE     =           0.0000
           AG WELLS      =           0.0000             AG WELLS      =           0.0000

                TOTAL IN =  9082028032.0000                  TOTAL IN =          28.0958

          OUT:                                     OUT:
          ----                                     ----
             STORAGE     =  3904889344.0000               STORAGE     =          16.6215
       CONSTANT HEAD     =           0.0000         CONSTANT HEAD     =           0.0000
     HEAD DEP BOUNDS     =    34312196.0000       HEAD DEP BOUNDS     =           0.2876
      STREAM LEAKAGE     =  1280849408.0000        STREAM LEAKAGE     =          11.1842
        UZF RECHARGE     =           0.0000          UZF RECHARGE     =           0.0000
               GW ET     =      831874.7500                 GW ET     =           0.0000
     SURFACE LEAKAGE     =           0.0000       SURFACE LEAKAGE     =           0.0000
           AG WELLS      =  3861166848.0000             AG WELLS      =           0.0000

               TOTAL OUT =  9082049536.0000                 TOTAL OUT =          28.0932

                IN - OUT =      -21504.0000                  IN - OUT =       2.5597E-03

     PERCENT DISCREPANCY =          -0.00         PERCENT DISCREPANCY =           0.01






         TIME SUMMARY AT END OF TIME STEP   30 IN STRESS PERIOD   46
                    SECONDS     MINUTES      HOURS       DAYS        YEARS
                    -----------------------------------------------------------
   TIME STEP LENGTH  87667.      1461.1      24.352      1.0147     2.77799E-03
 STRESS PERIOD TIME 2.63000E+06  43833.      730.56      30.440     8.33397E-02
         TOTAL TIME 1.18435E+08 1.97392E+06  32899.      1370.8      3.7530    
1
1
                            STRESS PERIOD NO.   47, LENGTH =   2630000.    
                            -----------------------------------------------

                              NUMBER OF TIME STEPS =    30

                               MULTIPLIER FOR DELT =     1.000

                            INITIAL TIME STEP SIZE =   87666.66    

 REUSING NON-PARAMETER GHB CELLS FROM LAST STRESS PERIOD

      2 GHB CELLS

 REUSING STREAM SEGMENT DATA FROM LAST STRESS PERIOD



            AREAL INFILTRATION RATE
 READING ON UNIT   19 WITH FORMAT: (FREE)              

            1           2           3           4           5           6           7           8           9          10
 ........................................................................................................................
   1   1.0000E-10  2.0000E-10   0.000       0.000       0.000       0.000       0.000       0.000       0.000       0.000    
   2   2.0000E-10  1.0000E-10  2.0000E-10   0.000       0.000      8.0000E-10  8.0000E-10  5.0000E-10   0.000       0.000    
   3    0.000      5.0000E-10  1.0000E-10  1.0000E-10  8.0000E-10  8.0000E-10  5.0000E-10  5.0000E-10   0.000       0.000    
   4   8.0000E-10  5.0000E-10  1.0000E-10  1.0000E-10  1.0000E-10  1.0000E-10  1.0000E-10  1.0000E-10  2.0000E-10   0.000    
   5   8.0000E-10  5.0000E-10  1.0000E-10  1.0000E-10  1.0000E-10  1.0000E-10  1.0000E-10  1.0000E-10  1.0000E-10  1.0000E-10
   6   8.0000E-10  5.0000E-10  5.0000E-10  2.0000E-10  2.0000E-10  1.0000E-10  1.0000E-10  1.0000E-10  1.0000E-10  5.0000E-10
   7   8.0000E-10  5.0000E-10  5.0000E-10  2.0000E-10  2.0000E-10  1.0000E-10  1.0000E-10  2.0000E-10  2.0000E-10   0.000    
   8    0.000      5.0000E-10  5.0000E-10  2.0000E-10  2.0000E-10  1.0000E-10  1.0000E-10  2.0000E-10  5.0000E-10   0.000    
   9    0.000      5.0000E-10  5.0000E-10  2.0000E-10  2.0000E-10  1.0000E-10  1.0000E-10  2.0000E-10  5.0000E-10   0.000    
  10    0.000      5.0000E-10  5.0000E-10  2.0000E-10  2.0000E-10  1.0000E-10  1.0000E-10  2.0000E-10  5.0000E-10  8.0000E-10
  11    0.000      1.0000E-10  1.0000E-10  1.0000E-10  1.0000E-10  1.0000E-10  1.0000E-10  2.0000E-10  5.0000E-10   0.000    
  12   1.0000E-10  1.0000E-10  1.0000E-10  1.0000E-10  1.0000E-10  1.0000E-10  1.0000E-10  1.0000E-10  2.0000E-10   0.000    
  13   1.0000E-10  1.0000E-10  2.0000E-10  2.0000E-10  2.0000E-10  2.0000E-10  2.0000E-10  1.0000E-10  1.0000E-10   0.000    
  14    0.000      2.0000E-10  5.0000E-10  5.0000E-10  5.0000E-10  5.0000E-10  5.0000E-10  2.0000E-10  1.0000E-10   0.000    
  15    0.000       0.000      8.0000E-10  8.0000E-10  8.0000E-10  8.0000E-10   0.000       0.000       0.000       0.000    

                  ET RATE =  5.000000E-09

 USING ET EXTINCTION DEPTH FROM PREVIOUS STRESS PERIOD. CURRENT PERIOD IS:      47

 USING EXTINCTION WATER CONTENT FROM PREVIOUS STRESS PERIOD. CURRENT PERIOD IS:      47

 USING AIR ENTRY PRESSURE FROM PREVIOUS STRESS PERIOD. CURRENT PERIOD IS:      47

 USING ROOT PRESSURE HEAD FROM PREVIOUS STRESS PERIOD. CURRENT PERIOD IS:      47

 USING ROOT ACTIVITY FROM PREVIOUS STRESS PERIOD. CURRENT PERIOD IS:      47

 PROCESSING AG STRESS PERIOD DATA

 READING AG STRESS PERIOD DATA

 READING IRRIGATION SEGMENT

 READING IRRIGATION WELL

 READING SUPPLEMENTAL WELL

 END PROCESSING AG STRESS PERIOD DATA OPTIONS
 
 SOLVING FOR HEAD 
                                                   Max.-Head-Change                         Max.-Flux-Residual
  Residual-Control   Outer-Iter.   Inner-Iter.     Column Row Layer    Maximum-Head-Change  Column Row Layer    Maximum-Flux-Residual          L2-NORM 
          0                 1           2             6    7     1       0.4192773353E-01       6    7    1         0.2266385288E+01      0.5551780283E+01
          0                 2           2             6    7     1      -0.4095911659E-02       6    7    1        -0.2266407814E+00      0.5800234554E+00
          0                 3           2             4    6     1      -0.8911458670E-03       4    6    1        -0.4869870601E-01      0.6417045002E-01
          0                 4           2             4    6     1      -0.2541445511E-03       4    6    1        -0.1384994292E-01      0.1464265084E-01
          0                 5           1             4    6     1      -0.7250986690E-04       4    6    1        -0.3951280808E-02      0.4141987068E-02

    ------------------------------------------------
       NWT REQUIRED            5 OUTER ITERATIONS 
       AND A TOTAL OF          9 INNER ITERATIONS.
    ------------------------------------------------

 NO OUTPUT CONTROL FOR STRESS PERIOD   47   TIME STEP    1
 
 SOLVING FOR HEAD 
                                                   Max.-Head-Change                         Max.-Flux-Residual
  Residual-Control   Outer-Iter.   Inner-Iter.     Column Row Layer    Maximum-Head-Change  Column Row Layer    Maximum-Flux-Residual          L2-NORM 
          0                 1           2             6    7     1       0.4029126901E-01       6    7    1         0.2177262341E+01      0.5329955427E+01
          0                 2           2             6    7     1      -0.3933578138E-02       6    7    1        -0.2177283625E+00      0.5549749101E+00
          0                 3           2             4    6     1      -0.3021541351E-02       4    6    1        -0.1614434980E+00      0.3134494970E+00
          0                 4           2             5    6     1       0.2078065152E-02       5    6    1         0.1225348138E+00      0.2159054040E+00
          0                 5           2             4    8     1       0.4945267417E-03       5    8    1         0.2781465245E-01      0.5847075725E-01
          0                 6           2             4    8     1       0.1656634225E-03       4    8    1         0.9255606866E-02      0.1909619782E-01
          0                 7           1             4    7     1       0.5584284526E-04       4    7    1         0.3106184341E-02      0.6254239634E-02

    ------------------------------------------------
       NWT REQUIRED            7 OUTER ITERATIONS 
       AND A TOTAL OF         13 INNER ITERATIONS.
    ------------------------------------------------

 NO OUTPUT CONTROL FOR STRESS PERIOD   47   TIME STEP    2
 
 SOLVING FOR HEAD 
                                                   Max.-Head-Change                         Max.-Flux-Residual
  Residual-Control   Outer-Iter.   Inner-Iter.     Column Row Layer    Maximum-Head-Change  Column Row Layer    Maximum-Flux-Residual          L2-NORM 
          0                 1           2             6    7     1       0.3873415580E-01       6    7    1         0.2092445974E+01      0.5120801344E+01
          0                 2           2             6    7     1      -0.3779110696E-02       6    7    1        -0.2092466077E+00      0.5318972526E+00
          0                 3           2             4    6     1      -0.2944571678E-02       4    6    1        -0.1572425240E+00      0.3087646329E+00
          0                 4           2             5    6     1       0.2082666323E-02       5    6    1         0.1227758408E+00      0.2176134376E+00
          0                 5           2             5    6     1      -0.1172457583E-02       5    6    1        -0.7100234261E-01      0.1211747839E+00
          0                 6           2             5    6     1       0.1105237869E-02       5    6    1         0.6846134312E-01      0.1400189011E+00
          0                 7           2             5    6     1      -0.8211142634E-03       5    6    1        -0.5243117068E-01      0.9602511744E-01
          0                 8           2             5    6     1       0.7919623092E-03       5    6    1         0.5177454823E-01      0.1069104565E+00
          0                 9           2             5    6     1      -0.4122095531E-03       5    6    1        -0.2786975483E-01      0.4615981676E-01
          0                10           2             5    6     1       0.4275164841E-03       5    6    1         0.2943510341E-01      0.6524774328E-01
                                                   Max.-Head-Change                         Max.-Flux-Residual
  Residual-Control   Outer-Iter.   Inner-Iter.     Column Row Layer    Maximum-Head-Change  Column Row Layer    Maximum-Flux-Residual          L2-NORM 
          0                11           2             5    6     1      -0.2123387078E-03       5    6    1        -0.1516706040E-01      0.2415237838E-01
          0                12           2             5    6     1       0.2321466030E-03       5    6    1         0.1684201063E-01      0.3892386097E-01
          0                13           2             4    7     1       0.1074042935E-03       4    7    1         0.7383319036E-02      0.1640690217E-01
          0                14           1             4    7     1       0.5027072119E-04       4    7    1         0.3460595135E-02      0.7404381627E-02

    ------------------------------------------------
       NWT REQUIRED           14 OUTER ITERATIONS 
       AND A TOTAL OF         27 INNER ITERATIONS.
    ------------------------------------------------

 NO OUTPUT CONTROL FOR STRESS PERIOD   47   TIME STEP    3
 
 SOLVING FOR HEAD 
                                                   Max.-Head-Change                         Max.-Flux-Residual
  Residual-Control   Outer-Iter.   Inner-Iter.     Column Row Layer    Maximum-Head-Change  Column Row Layer    Maximum-Flux-Residual          L2-NORM 
          0                 1           2             6    7     1       0.3725652238E-01       6    7    1         0.2011742217E+01      0.4819502681E+01
          0                 2           2             5    6     1      -0.4724005203E-02       5    6    1        -0.2550171526E+00      0.5532495027E+00
          0                 3           2             5    6     1      -0.1133380132E-02       5    6    1        -0.6232750230E-01      0.8211716825E-01
          0                 4           2             4    6     1      -0.1951181983E-03       4    6    1        -0.1071562036E-01      0.1388424658E-01
          0                 5           1             4    6     1      -0.5565413961E-04       4    6    1        -0.3027595069E-02      0.3506890621E-02

    ------------------------------------------------
       NWT REQUIRED            5 OUTER ITERATIONS 
       AND A TOTAL OF          9 INNER ITERATIONS.
    ------------------------------------------------

 NO OUTPUT CONTROL FOR STRESS PERIOD   47   TIME STEP    4
 
 SOLVING FOR HEAD 
                                                   Max.-Head-Change                         Max.-Flux-Residual
  Residual-Control   Outer-Iter.   Inner-Iter.     Column Row Layer    Maximum-Head-Change  Column Row Layer    Maximum-Flux-Residual          L2-NORM 
          0                 1           2             6    7     1       0.3585646358E-01       6    7    1         0.1935023509E+01      0.4566254289E+01
          0                 2           2             4    6     1      -0.4089031880E-02       4    6    1        -0.2168045335E+00      0.5435190012E+00
          0                 3           2             5    8     1       0.1747957651E-02       5    8    1         0.9907840895E-01      0.2071886000E+00
          0                 4           2             5    8     1       0.3841314313E-03       5    8    1         0.2189936979E-01      0.4202502051E-01
          0                 5           2             5    8     1       0.3166867406E-03       5    8    1         0.1797459100E-01      0.3981963234E-01
          0                 6           2             4    8     1       0.1055972355E-03       5    8    1         0.5922270947E-02      0.1309921810E-01
          0                 7           1             4    8     1       0.3534565329E-04       4    8    1         0.1976015413E-02      0.4313311320E-02

    ------------------------------------------------
       NWT REQUIRED            7 OUTER ITERATIONS 
       AND A TOTAL OF         13 INNER ITERATIONS.
    ------------------------------------------------

 NO OUTPUT CONTROL FOR STRESS PERIOD   47   TIME STEP    5
 
 SOLVING FOR HEAD 
                                                   Max.-Head-Change                         Max.-Flux-Residual
  Residual-Control   Outer-Iter.   Inner-Iter.     Column Row Layer    Maximum-Head-Change  Column Row Layer    Maximum-Flux-Residual          L2-NORM 
          0                 1           2             3    7     1       0.3524698804E-01       6    7    1         0.1862869991E+01      0.4429593493E+01
          0                 2           2             3    7     1      -0.3426818753E-02       6    7    1        -0.1862887352E+00      0.4609935231E+00
          0                 3           2             4    6     1      -0.2584965343E-02       4    6    1        -0.1380876333E+00      0.2727216378E+00
          0                 4           2             5    8     1       0.1488394721E-02       5    8    1         0.8440984201E-01      0.1954311703E+00
          0                 5           2             4    8     1       0.4936340188E-03       5    8    1         0.2780614163E-01      0.6471006482E-01
          0                 6           2             4    8     1       0.1653194714E-03       4    8    1         0.9238540119E-02      0.2144929579E-01
          0                 7           1             4    8     1       0.5536187557E-04       4    8    1         0.3093950177E-02      0.7115040794E-02

    ------------------------------------------------
       NWT REQUIRED            7 OUTER ITERATIONS 
       AND A TOTAL OF         13 INNER ITERATIONS.
    ------------------------------------------------

 NO OUTPUT CONTROL FOR STRESS PERIOD   47   TIME STEP    6
 
 SOLVING FOR HEAD 
                                                   Max.-Head-Change                         Max.-Flux-Residual
  Residual-Control   Outer-Iter.   Inner-Iter.     Column Row Layer    Maximum-Head-Change  Column Row Layer    Maximum-Flux-Residual          L2-NORM 
          0                 1           2             3    7     1       0.3465769122E-01       6    7    1         0.1792371515E+01      0.4297336047E+01
          0                 2           2             3    7     1      -0.3388937172E-02       6    7    1        -0.1792388058E+00      0.4892735085E+00
          0                 3           2             5    8     1       0.1733520786E-02       5    8    1         0.9827181448E-01      0.2066150068E+00
          0                 4           2             4    6     1      -0.6151772766E-03       4    6    1        -0.3470864145E-01      0.6504670765E-01
          0                 5           2             5    8     1       0.5640886269E-03       5    8    1         0.3378090446E-01      0.7869251913E-01
          0                 6           2             4    8     1       0.4115331110E-03       5    8    1         0.2434504220E-01      0.5823371278E-01
          0                 7           1             4    8     1       0.7437225484E-04       4    8    1         0.4391019280E-02      0.1015818942E-01

    ------------------------------------------------
       NWT REQUIRED            7 OUTER ITERATIONS 
       AND A TOTAL OF         13 INNER ITERATIONS.
    ------------------------------------------------

 NO OUTPUT CONTROL FOR STRESS PERIOD   47   TIME STEP    7
 
 SOLVING FOR HEAD 
                                                   Max.-Head-Change                         Max.-Flux-Residual
  Residual-Control   Outer-Iter.   Inner-Iter.     Column Row Layer    Maximum-Head-Change  Column Row Layer    Maximum-Flux-Residual          L2-NORM 
          0                 1           2             3    7     1       0.3408042426E-01       6    7    1         0.1726251403E+01      0.4174907599E+01
          0                 2           2             3    7     1      -0.3312140794E-02       6    7    1        -0.1726267154E+00      0.4376325952E+00
          0                 3           2             5    8     1       0.4269892868E-03       5    8    1         0.2294547025E-01      0.4727322910E-01
          0                 4           1             5    8     1       0.1188683427E-03       5    8    1         0.6470381473E-02      0.1057844332E-01
          0                 5           1             4    6     1      -0.2919461671E-04       4    6    1        -0.1602203102E-02      0.2641024743E-02

    ------------------------------------------------
       NWT REQUIRED            5 OUTER ITERATIONS 
       AND A TOTAL OF          8 INNER ITERATIONS.
    ------------------------------------------------

 NO OUTPUT CONTROL FOR STRESS PERIOD   47   TIME STEP    8
 
 SOLVING FOR HEAD 
                                                   Max.-Head-Change                         Max.-Flux-Residual
  Residual-Control   Outer-Iter.   Inner-Iter.     Column Row Layer    Maximum-Head-Change  Column Row Layer    Maximum-Flux-Residual          L2-NORM 
          0                 1           2             3    7     1       0.3351698219E-01       6    7    1         0.1666179297E+01      0.4063274790E+01
          0                 2           2             3    7     1      -0.3278220538E-02       6    7    1        -0.1666194309E+00      0.4602262746E+00
          0                 3           2             5    8     1       0.1902982342E-02       5    8    1         0.1078461963E+00      0.2310257353E+00
          0                 4           2             5    8     1       0.6260246027E-03       5    8    1         0.3555458709E-01      0.7618698476E-01
          0                 5           2             5    8     1       0.2060637035E-03       5    8    1         0.1169289563E-01      0.2526204537E-01
          0                 6           1             4    8     1       0.6800727377E-04       5    8    1         0.3849166766E-02      0.8384554628E-02

    ------------------------------------------------
       NWT REQUIRED            6 OUTER ITERATIONS 
       AND A TOTAL OF         11 INNER ITERATIONS.
    ------------------------------------------------

 NO OUTPUT CONTROL FOR STRESS PERIOD   47   TIME STEP    9
 
 SOLVING FOR HEAD 
                                                   Max.-Head-Change                         Max.-Flux-Residual
  Residual-Control   Outer-Iter.   Inner-Iter.     Column Row Layer    Maximum-Head-Change  Column Row Layer    Maximum-Flux-Residual          L2-NORM 
          0                 1           2             3    7     1       0.3296734561E-01       6    7    1         0.1609542106E+01      0.3958739061E+01
          0                 2           2             3    7     1      -0.3213257022E-02       6    7    1        -0.1609556406E+00      0.4073390637E+00
          0                 3           2             4    6     1      -0.3439752796E-03       4    6    1        -0.1896499722E-01      0.4069778729E-01
          0                 4           2             5    8     1       0.1076760979E-02       5    8    1         0.5778669802E-01      0.1319440455E+00
          0                 5           2             4    6     1      -0.2890830642E-03       4    6    1        -0.1623117908E-01      0.3691948194E-01
          0                 6           2             4    8     1       0.4795614420E-03       5    8    1         0.2690958185E-01      0.6515265444E-01
          0                 7           2             4    7     1       0.1699893470E-03       5    7    1         0.9945517986E-02      0.2274317145E-01
          0                 8           1             4    7     1       0.6359161243E-04       4    7    1         0.3727028491E-02      0.7986433491E-02

    ------------------------------------------------
       NWT REQUIRED            8 OUTER ITERATIONS 
       AND A TOTAL OF         15 INNER ITERATIONS.
    ------------------------------------------------

 NO OUTPUT CONTROL FOR STRESS PERIOD   47   TIME STEP   10
 
 SOLVING FOR HEAD 
                                                   Max.-Head-Change                         Max.-Flux-Residual
  Residual-Control   Outer-Iter.   Inner-Iter.     Column Row Layer    Maximum-Head-Change  Column Row Layer    Maximum-Flux-Residual          L2-NORM 
          0                 1           2             3    7     1       0.3243102735E-01       6    7    1         0.1556096846E+01      0.3860690108E+01
          0                 2           2             3    7     1      -0.3149283543E-02       6    7    1        -0.1556110463E+00      0.4145454325E+00
          0                 3           2             4    6     1      -0.2271055318E-02       4    6    1        -0.1210125997E+00      0.2549995593E+00
          0                 4           2             5    8     1       0.1570995547E-02       5    8    1         0.8906088055E-01      0.2084024306E+00
          0                 5           2             4    8     1       0.5208493464E-03       5    8    1         0.2935064186E-01      0.6896691904E-01
          0                 6           2             4    8     1       0.1744337931E-03       4    8    1         0.9747896429E-02      0.2284910797E-01
          0                 7           1             4    8     1       0.5841404288E-04       4    8    1         0.3264471773E-02      0.7576121997E-02

    ------------------------------------------------
       NWT REQUIRED            7 OUTER ITERATIONS 
       AND A TOTAL OF         13 INNER ITERATIONS.
    ------------------------------------------------

 NO OUTPUT CONTROL FOR STRESS PERIOD   47   TIME STEP   11
 
 SOLVING FOR HEAD 
                                                   Max.-Head-Change                         Max.-Flux-Residual
  Residual-Control   Outer-Iter.   Inner-Iter.     Column Row Layer    Maximum-Head-Change  Column Row Layer    Maximum-Flux-Residual          L2-NORM 
          0                 1           2             3    7     1       0.3190765487E-01       6    7    1         0.1505648845E+01      0.3768593603E+01
          0                 2           2             3    7     1      -0.3097470455E-02       6    7    1        -0.1505661809E+00      0.4090357882E+00
          0                 3           2             4    6     1      -0.2219832035E-02       4    6    1        -0.1182368451E+00      0.2517800819E+00
          0                 4           2             5    8     1       0.1582164424E-02       5    8    1         0.8968896250E-01      0.2102750936E+00
          0                 5           2             4    6     1      -0.1486027890E-02       4    6    1        -0.8327339646E-01      0.1998207449E+00
          0                 6           2             4    6     1      -0.8920423867E-02       4    7    1        -0.5007902799E+00      0.1232069020E+01
          0                 7           2             4    6     1       0.7196994771E-02       4    6    1         0.4144876537E+00      0.9958268679E+00
          0                 8           2             4    7     1       0.2584281641E-02       4    7    1         0.1508361986E+00      0.3649724453E+00
          0                 9           2             4    7     1       0.9677349709E-03       4    7    1         0.5654765636E-01      0.1338689579E+00
          0                10           2             4    7     1       0.3620013828E-03       4    7    1         0.2117445506E-01      0.4913623210E-01
                                                   Max.-Head-Change                         Max.-Flux-Residual
  Residual-Control   Outer-Iter.   Inner-Iter.     Column Row Layer    Maximum-Head-Change  Column Row Layer    Maximum-Flux-Residual          L2-NORM 
          0                11           2             4    7     1       0.1352834475E-03       4    7    1         0.7920411332E-02      0.1804619310E-01
          0                12           1             4    7     1       0.5051241450E-04       4    7    1         0.2959814329E-02      0.6631387189E-02

    ------------------------------------------------
       NWT REQUIRED           12 OUTER ITERATIONS 
       AND A TOTAL OF         23 INNER ITERATIONS.
    ------------------------------------------------

 NO OUTPUT CONTROL FOR STRESS PERIOD   47   TIME STEP   12
 
 SOLVING FOR HEAD 
                                                   Max.-Head-Change                         Max.-Flux-Residual
  Residual-Control   Outer-Iter.   Inner-Iter.     Column Row Layer    Maximum-Head-Change  Column Row Layer    Maximum-Flux-Residual          L2-NORM 
          0                 1           2             3    7     1       0.3139803075E-01       6    7    1         0.1457984749E+01      0.3682451045E+01
          0                 2           2             3    7     1      -0.3046964331E-02       6    7    1        -0.1457997091E+00      0.4044157875E+00
          0                 3           2             5    8     1       0.5555109506E-03       5    8    1         0.2979036783E-01      0.5532153707E-01
          0                 4           2             5    8     1       0.1603833694E-03       5    8    1         0.8672667362E-02      0.1449569531E-01
          0                 5           1             5    8     1       0.4634418671E-04       5    8    1         0.2501442637E-02      0.4223996065E-02

    ------------------------------------------------
       NWT REQUIRED            5 OUTER ITERATIONS 
       AND A TOTAL OF          9 INNER ITERATIONS.
    ------------------------------------------------

 NO OUTPUT CONTROL FOR STRESS PERIOD   47   TIME STEP   13
 
 SOLVING FOR HEAD 
                                                   Max.-Head-Change                         Max.-Flux-Residual
  Residual-Control   Outer-Iter.   Inner-Iter.     Column Row Layer    Maximum-Head-Change  Column Row Layer    Maximum-Flux-Residual          L2-NORM 
          0                 1           2             3    7     1       0.3090173947E-01       6    7    1         0.1412931634E+01      0.3600895164E+01
          0                 2           2             3    7     1      -0.2997738155E-02       6    7    1        -0.1412943382E+00      0.4004805733E+00
          0                 3           2             5    8     1       0.5735779324E-03       5    8    1         0.3075141005E-01      0.5738440713E-01
          0                 4           2             5    8     1       0.1657485146E-03       5    8    1         0.8956332086E-02      0.1528205147E-01
          0                 5           1             5    8     1       0.4793679429E-04       5    8    1         0.2585743111E-02      0.4462865635E-02

    ------------------------------------------------
       NWT REQUIRED            5 OUTER ITERATIONS 
       AND A TOTAL OF          9 INNER ITERATIONS.
    ------------------------------------------------

 NO OUTPUT CONTROL FOR STRESS PERIOD   47   TIME STEP   14
 
 SOLVING FOR HEAD 
                                                   Max.-Head-Change                         Max.-Flux-Residual
  Residual-Control   Outer-Iter.   Inner-Iter.     Column Row Layer    Maximum-Head-Change  Column Row Layer    Maximum-Flux-Residual          L2-NORM 
          0                 1           2             3    7     1       0.3041834065E-01       6    7    1         0.1370330479E+01      0.3524106112E+01
          0                 2           2             3    7     1      -0.2949756692E-02       6    7    1        -0.1370341665E+00      0.3971733989E+00
          0                 3           2             5    8     1       0.5899737845E-03       5    8    1         0.3162312823E-01      0.5946101750E-01
          0                 4           2             5    8     1       0.1706207680E-03       5    8    1         0.9213721986E-02      0.1604983092E-01
          0                 5           1             5    8     1       0.4938375846E-04       5    8    1         0.2662272566E-02      0.4695269729E-02

    ------------------------------------------------
       NWT REQUIRED            5 OUTER ITERATIONS 
       AND A TOTAL OF          9 INNER ITERATIONS.
    ------------------------------------------------

 NO OUTPUT CONTROL FOR STRESS PERIOD   47   TIME STEP   15
 
 SOLVING FOR HEAD 
                                                   Max.-Head-Change                         Max.-Flux-Residual
  Residual-Control   Outer-Iter.   Inner-Iter.     Column Row Layer    Maximum-Head-Change  Column Row Layer    Maximum-Flux-Residual          L2-NORM 
          0                 1           2             3    7     1       0.2994810037E-01       6    7    1         0.1329989582E+01      0.3451717338E+01
          0                 2           2             3    7     1      -0.2903190641E-02       6    7    1        -0.1330000233E+00      0.3935310761E+00
          0                 3           2             5    8     1       0.6038780072E-03       5    8    1         0.3236163915E-01      0.6140168994E-01
          0                 4           2             5    8     1       0.1794760976E-03       5    8    1         0.9684666524E-02      0.1733912526E-01
          0                 5           1             5    8     1       0.5031009198E-04       5    8    1         0.2710900808E-02      0.4873340820E-02

    ------------------------------------------------
       NWT REQUIRED            5 OUTER ITERATIONS 
       AND A TOTAL OF          9 INNER ITERATIONS.
    ------------------------------------------------

 NO OUTPUT CONTROL FOR STRESS PERIOD   47   TIME STEP   16
 
 SOLVING FOR HEAD 
                                                   Max.-Head-Change                         Max.-Flux-Residual
  Residual-Control   Outer-Iter.   Inner-Iter.     Column Row Layer    Maximum-Head-Change  Column Row Layer    Maximum-Flux-Residual          L2-NORM 
          0                 1           2             3    7     1       0.2949014651E-01       6    7    1         0.1291780528E+01      0.3383386527E+01
          0                 2           2             3    7     1      -0.2879156890E-02       6    7    1        -0.1291790673E+00      0.3535557216E+00
          0                 3           2             5    8     1       0.2058083715E-02       5    8    1         0.1165632096E+00      0.2592922801E+00
          0                 4           2             5    8     1       0.6779171889E-03       5    8    1         0.3845532593E-01      0.8627103274E-01
          0                 5           2             5    8     1       0.2234183898E-03       5    8    1         0.1266404664E-01      0.2877178390E-01
          0                 6           1             4    8     1       0.7421349041E-04       5    8    1         0.4173901117E-02      0.9600639212E-02

    ------------------------------------------------
       NWT REQUIRED            6 OUTER ITERATIONS 
       AND A TOTAL OF         11 INNER ITERATIONS.
    ------------------------------------------------

 NO OUTPUT CONTROL FOR STRESS PERIOD   47   TIME STEP   17
 
 SOLVING FOR HEAD 
                                                   Max.-Head-Change                         Max.-Flux-Residual
  Residual-Control   Outer-Iter.   Inner-Iter.     Column Row Layer    Maximum-Head-Change  Column Row Layer    Maximum-Flux-Residual          L2-NORM 
          0                 1           2             3    7     1       0.2904470030E-01       6    7    1         0.1255568573E+01      0.3318909462E+01
          0                 2           2             3    7     1      -0.2834169003E-02       6    7    1        -0.1255578240E+00      0.3417181261E+00
          0                 3           2             5    8     1       0.2137480192E-02       5    8    1         0.1145471311E+00      0.2555832955E+00
          0                 4           2             5    8     1      -0.1073941840E-01       4    6    1        -0.5937657502E+00      0.1454756905E+01
          0                 5           2             5    8     1       0.7788487316E-02       5    8    1         0.4417636710E+00      0.1030188037E+01
          0                 6           2             4    7     1       0.2653554589E-02       4    8    1         0.1548632417E+00      0.3741416347E+00
          0                 7           2             4    7     1       0.9938177498E-03       4    7    1         0.5800362234E-01      0.1363849037E+00
          0                 8           2             4    7     1       0.3720188323E-03       4    7    1         0.2172353771E-01      0.4985914437E-01
          0                 9           2             4    7     1       0.1391874199E-03       4    7    1         0.8131780774E-02      0.1826779893E-01
          0                10           1             4    7     1       0.5204895103E-04       4    7    1         0.3042410052E-02      0.6704486317E-02

    ------------------------------------------------
       NWT REQUIRED           10 OUTER ITERATIONS 
       AND A TOTAL OF         19 INNER ITERATIONS.
    ------------------------------------------------

 NO OUTPUT CONTROL FOR STRESS PERIOD   47   TIME STEP   18
 
 SOLVING FOR HEAD 
                                                   Max.-Head-Change                         Max.-Flux-Residual
  Residual-Control   Outer-Iter.   Inner-Iter.     Column Row Layer    Maximum-Head-Change  Column Row Layer    Maximum-Flux-Residual          L2-NORM 
          0                 1           2             3    7     1       0.2861115011E-01       6    7    1         0.1221238929E+01      0.3258277931E+01
          0                 2           2             3    7     1      -0.2770149937E-02       5    8    1         0.1222935948E+00      0.3885614291E+00
          0                 3           2             5    8     1       0.6412230850E-03       5    8    1         0.3434324573E-01      0.6733476806E-01
          0                 4           2             5    8     1       0.1859051900E-03       5    8    1         0.1001903168E-01      0.1882513383E-01
          0                 5           1             5    8     1       0.5393954512E-04       5    8    1         0.2902630384E-02      0.5532141145E-02

    ------------------------------------------------
       NWT REQUIRED            5 OUTER ITERATIONS 
       AND A TOTAL OF          9 INNER ITERATIONS.
    ------------------------------------------------

 NO OUTPUT CONTROL FOR STRESS PERIOD   47   TIME STEP   19
 
 SOLVING FOR HEAD 
                                                   Max.-Head-Change                         Max.-Flux-Residual
  Residual-Control   Outer-Iter.   Inner-Iter.     Column Row Layer    Maximum-Head-Change  Column Row Layer    Maximum-Flux-Residual          L2-NORM 
          0                 1           2             3    7     1       0.2818982846E-01       6    7    1         0.1188691405E+01      0.3200516183E+01
          0                 2           2             3    7     1      -0.2728244875E-02       5    8    1         0.1239392235E+00      0.3872020109E+00
          0                 3           2             5    8     1       0.6509631133E-03       5    8    1         0.3485892348E-01      0.6911455121E-01
          0                 4           2             5    8     1       0.1888239331E-03       5    8    1         0.1017224620E-01      0.1943250168E-01
          0                 5           1             5    8     1       0.5481355116E-04       5    8    1         0.2948584401E-02      0.5726147507E-02

    ------------------------------------------------
       NWT REQUIRED            5 OUTER ITERATIONS 
       AND A TOTAL OF          9 INNER ITERATIONS.
    ------------------------------------------------

 NO OUTPUT CONTROL FOR STRESS PERIOD   47   TIME STEP   20
 
 SOLVING FOR HEAD 
                                                   Max.-Head-Change                         Max.-Flux-Residual
  Residual-Control   Outer-Iter.   Inner-Iter.     Column Row Layer    Maximum-Head-Change  Column Row Layer    Maximum-Flux-Residual          L2-NORM 
          0                 1           2             3    7     1       0.2778020319E-01       6    7    1         0.1157788903E+01      0.3145813254E+01
          0                 2           2             3    7     1      -0.2687498132E-02       5    8    1         0.1253961841E+00      0.3860623445E+00
          0                 3           2             5    8     1       0.6596506751E-03       5    8    1         0.3531826717E-01      0.7080629663E-01
          0                 4           2             5    8     1       0.1914337250E-03       5    8    1         0.1030898194E-01      0.2000497046E-01
          0                 5           1             5    8     1       0.5559687643E-04       5    8    1         0.2989699309E-02      0.5887105481E-02

    ------------------------------------------------
       NWT REQUIRED            5 OUTER ITERATIONS 
       AND A TOTAL OF          9 INNER ITERATIONS.
    ------------------------------------------------

 NO OUTPUT CONTROL FOR STRESS PERIOD   47   TIME STEP   21
 
 SOLVING FOR HEAD 
                                                   Max.-Head-Change                         Max.-Flux-Residual
  Residual-Control   Outer-Iter.   Inner-Iter.     Column Row Layer    Maximum-Head-Change  Column Row Layer    Maximum-Flux-Residual          L2-NORM 
          0                 1           2             3    7     1       0.2738194573E-01       6    7    1         0.1128428629E+01      0.3093946591E+01
          0                 2           2             3    7     1      -0.2647878334E-02       5    8    1         0.1266831702E+00      0.3851005342E+00
          0                 3           2             5    8     1       0.6674010966E-03       5    8    1         0.3572751963E-01      0.7240972186E-01
          0                 4           2             5    8     1       0.1937678515E-03       5    8    1         0.1043103701E-01      0.2054374357E-01
          0                 5           1             5    8     1       0.5629913122E-04       5    8    1         0.3026494238E-02      0.6049140678E-02

    ------------------------------------------------
       NWT REQUIRED            5 OUTER ITERATIONS 
       AND A TOTAL OF          9 INNER ITERATIONS.
    ------------------------------------------------

 NO OUTPUT CONTROL FOR STRESS PERIOD   47   TIME STEP   22
 
 SOLVING FOR HEAD 
                                                   Max.-Head-Change                         Max.-Flux-Residual
  Residual-Control   Outer-Iter.   Inner-Iter.     Column Row Layer    Maximum-Head-Change  Column Row Layer    Maximum-Flux-Residual          L2-NORM 
          0                 1           2             3    7     1       0.2699472119E-01       6    7    1         0.1100544712E+01      0.3044728046E+01
          0                 2           2             3    7     1      -0.2630817697E-02       6    7    1        -0.1100552354E+00      0.3043744616E+00
          0                 3           2             5    8     1       0.2221519320E-02       5    8    1         0.1190134422E+00      0.2717318872E+00
          0                 4           2             4    8     1       0.6858917717E-03       4    8    1         0.3842392235E-01      0.8865670525E-01
          0                 5           2             4    8     1       0.2293299651E-03       4    8    1         0.1286442329E-01      0.2911442916E-01
          0                 6           1             4    8     1       0.7654728252E-04       4    8    1         0.4299102041E-02      0.9600438270E-02

    ------------------------------------------------
       NWT REQUIRED            6 OUTER ITERATIONS 
       AND A TOTAL OF         11 INNER ITERATIONS.
    ------------------------------------------------

 NO OUTPUT CONTROL FOR STRESS PERIOD   47   TIME STEP   23
 
 SOLVING FOR HEAD 
                                                   Max.-Head-Change                         Max.-Flux-Residual
  Residual-Control   Outer-Iter.   Inner-Iter.     Column Row Layer    Maximum-Head-Change  Column Row Layer    Maximum-Flux-Residual          L2-NORM 
          0                 1           2             3    7     1       0.2661846362E-01       6    7    1         0.1074016597E+01      0.2997905869E+01
          0                 2           2             3    7     1      -0.2592133264E-02       6    7    1        -0.1074023899E+00      0.2958489911E+00
          0                 3           2             5    8     1       0.2136984796E-02       5    8    1         0.1144716940E+00      0.2620208134E+00
          0                 4           2             5    7     1       0.6503700117E-03       5    7    1         0.3642252327E-01      0.8377458414E-01
          0                 5           2             5    7     1       0.2174813750E-03       5    7    1         0.1220054037E-01      0.2702196038E-01
          0                 6           1             5    7     1       0.7257109695E-04       5    7    1         0.4077491087E-02      0.8772808532E-02

    ------------------------------------------------
       NWT REQUIRED            6 OUTER ITERATIONS 
       AND A TOTAL OF         11 INNER ITERATIONS.
    ------------------------------------------------

 NO OUTPUT CONTROL FOR STRESS PERIOD   47   TIME STEP   24
 
 SOLVING FOR HEAD 
                                                   Max.-Head-Change                         Max.-Flux-Residual
  Residual-Control   Outer-Iter.   Inner-Iter.     Column Row Layer    Maximum-Head-Change  Column Row Layer    Maximum-Flux-Residual          L2-NORM 
          0                 1           2             3    7     1       0.2625209482E-01       6    7    1         0.1048778321E+01      0.2953364466E+01
          0                 2           2             3    7     1      -0.2544447005E-02       6    7    1        -0.1048785303E+00      0.3174210874E+00
          0                 3           2             5    8     1       0.6840873772E-03       5    8    1         0.3661269790E-01      0.7642374912E-01
          0                 4           2             5    8     1       0.8462165732E-03       5    8    1         0.4538033854E-01      0.1065211136E+00
          0                 5           2             4    8     1       0.2497491732E-03       5    8    1         0.1323288955E-01      0.3151874638E-01
          0                 6           1             4    8     1       0.7419875522E-04       4    8    1         0.3924037122E-02      0.9331043564E-02

    ------------------------------------------------
       NWT REQUIRED            6 OUTER ITERATIONS 
       AND A TOTAL OF         11 INNER ITERATIONS.
    ------------------------------------------------

 NO OUTPUT CONTROL FOR STRESS PERIOD   47   TIME STEP   25
 
 SOLVING FOR HEAD 
                                                   Max.-Head-Change                         Max.-Flux-Residual
  Residual-Control   Outer-Iter.   Inner-Iter.     Column Row Layer    Maximum-Head-Change  Column Row Layer    Maximum-Flux-Residual          L2-NORM 
          0                 1           2             3    7     1       0.2589629446E-01       6    7    1         0.1024770460E+01      0.2910972043E+01
          0                 2           2             3    7     1      -0.2515417945E-02       6    7    1        -0.1024777139E+00      0.2885709791E+00
          0                 3           2             5    8     1       0.1343887631E-02       5    8    1         0.7196274380E-01      0.1611824840E+00
          0                 4           2             5    8     1       0.8420497530E-03       5    8    1         0.4514973800E-01      0.1073275035E+00
          0                 5           2             4    6     1      -0.2046612807E-03       4    6    1        -0.1119029241E-01      0.2594241406E-01
          0                 6           2             4    8     1       0.3631773801E-03       4    7    1         0.2045029880E-01      0.4961100344E-01
          0                 7           2             4    6     1      -0.1644096501E-03       5    6    1        -0.9514021523E-02      0.2305826026E-01
          0                 8           2             4    8     1       0.1177876454E-03       5    8    1         0.6960691981E-02      0.1706703681E-01
          0                 9           1             4    7     1       0.7387206947E-04       4    7    1         0.4561649001E-02      0.1066036316E-01

    ------------------------------------------------
       NWT REQUIRED            9 OUTER ITERATIONS 
       AND A TOTAL OF         17 INNER ITERATIONS.
    ------------------------------------------------

 NO OUTPUT CONTROL FOR STRESS PERIOD   47   TIME STEP   26
 
 SOLVING FOR HEAD 
                                                   Max.-Head-Change                         Max.-Flux-Residual
  Residual-Control   Outer-Iter.   Inner-Iter.     Column Row Layer    Maximum-Head-Change  Column Row Layer    Maximum-Flux-Residual          L2-NORM 
          0                 1           2             3    7     1       0.2554876947E-01       6    7    1         0.1001799037E+01      0.2870474873E+01
          0                 2           2             3    7     1      -0.2465544006E-02       5    8    1         0.1309976102E+00      0.3819697701E+00
          0                 3           2             4    7     1      -0.1656067257E-02       4    7    1        -0.8926742677E-01      0.2055196432E+00
          0                 4           2             5    8     1       0.1586702955E-02       5    8    1         0.8989488344E-01      0.2148004846E+00
          0                 5           2             4    7     1      -0.1445071655E-02       4    6    1        -0.8222388393E-01      0.2018405569E+00
          0                 6           2             4    7     1       0.1400533736E-02       5    8    1         0.8265907290E-01      0.2013990929E+00
          0                 7           2             4    7     1       0.5247251291E-03       4    7    1         0.3061441537E-01      0.7441339800E-01
          0                 8           2             4    7     1       0.1964986254E-03       4    7    1         0.1146994198E-01      0.2749809931E-01
          0                 9           1             4    7     1       0.7355048857E-04       4    7    1         0.4295220167E-02      0.1016265821E-01

    ------------------------------------------------
       NWT REQUIRED            9 OUTER ITERATIONS 
       AND A TOTAL OF         17 INNER ITERATIONS.
    ------------------------------------------------

 NO OUTPUT CONTROL FOR STRESS PERIOD   47   TIME STEP   27
 
 SOLVING FOR HEAD 
                                                   Max.-Head-Change                         Max.-Flux-Residual
  Residual-Control   Outer-Iter.   Inner-Iter.     Column Row Layer    Maximum-Head-Change  Column Row Layer    Maximum-Flux-Residual          L2-NORM 
          0                 1           2             3    7     1       0.2521192601E-01       6    7    1         0.9800067036E+00      0.2832004507E+01
          0                 2           2             3    7     1      -0.2432060758E-02       5    8    1         0.1314961283E+00      0.3815085558E+00
          0                 3           2             5    8     1       0.6975121805E-03       5    8    1         0.3730645012E-01      0.8022043698E-01
          0                 4           2             5    8     1       0.2029530230E-03       5    8    1         0.1090663228E-01      0.2312969448E-01
          0                 5           1             5    8     1       0.5909550624E-04       5    8    1         0.3171742181E-02      0.6826938282E-02

    ------------------------------------------------
       NWT REQUIRED            5 OUTER ITERATIONS 
       AND A TOTAL OF          9 INNER ITERATIONS.
    ------------------------------------------------

 NO OUTPUT CONTROL FOR STRESS PERIOD   47   TIME STEP   28
 
 SOLVING FOR HEAD 
                                                   Max.-Head-Change                         Max.-Flux-Residual
  Residual-Control   Outer-Iter.   Inner-Iter.     Column Row Layer    Maximum-Head-Change  Column Row Layer    Maximum-Flux-Residual          L2-NORM 
          0                 1           2             3    7     1       0.2488485754E-01       6    7    1         0.9592661697E+00      0.2795231464E+01
          0                 2           2             3    7     1      -0.2420670460E-02       6    7    1        -0.9592720377E-01      0.2704193643E+00
          0                 3           2             5    8     1       0.2222391520E-02       5    8    1         0.1190195354E+00      0.2775090075E+00
          0                 4           2             4    8     1      -0.6203596416E-03       4    8    1        -0.3373526657E-01      0.7962125288E-01
          0                 5           2             4    8     1       0.1028127768E-02       5    8    1         0.5771300653E-01      0.1403195420E+00
          0                 6           2             4    7     1       0.3644457324E-03       5    7    1         0.2138635535E-01      0.5022494621E-01
          0                 7           2             4    7     1       0.1364149067E-03       4    7    1         0.7982478242E-02      0.1806633319E-01
          0                 8           1             4    7     1       0.5097654623E-04       4    7    1         0.2987412824E-02      0.6526143431E-02

    ------------------------------------------------
       NWT REQUIRED            8 OUTER ITERATIONS 
       AND A TOTAL OF         15 INNER ITERATIONS.
    ------------------------------------------------

 NO OUTPUT CONTROL FOR STRESS PERIOD   47   TIME STEP   29
 
 SOLVING FOR HEAD 
                                                   Max.-Head-Change                         Max.-Flux-Residual
  Residual-Control   Outer-Iter.   Inner-Iter.     Column Row Layer    Maximum-Head-Change  Column Row Layer    Maximum-Flux-Residual          L2-NORM 
          0                 1           2             3    7     1       0.2456686782E-01       6    7    1         0.9382342056E+00      0.2759297998E+01
          0                 2           2             3    7     1      -0.2387809995E-02       6    7    1        -0.9382398221E-01      0.2655174577E+00
          0                 3           2             5    8     1       0.2133021620E-02       5    8    1         0.1142244892E+00      0.2668354672E+00
          0                 4           2             4    7     1       0.6328100492E-03       4    7    1         0.3500193583E-01      0.8206053808E-01
          0                 5           2             4    7     1       0.2146520339E-03       4    7    1         0.1191500719E-01      0.2548678138E-01
          0                 6           1             4    7     1       0.7251571381E-04       4    7    1         0.4037355990E-02      0.7986263459E-02

    ------------------------------------------------
       NWT REQUIRED            6 OUTER ITERATIONS 
       AND A TOTAL OF         11 INNER ITERATIONS.
    ------------------------------------------------

 NO OUTPUT CONTROL FOR STRESS PERIOD   47   TIME STEP   30



 STREAM LISTING     PERIOD     47   STEP       30

 LAYER ROW COL. STREAM  RCH.  FLOW INTO     FLOW TO   FLOW OUT OF   OVRLND.     DIRECT     STREAM       STREAM     STREAM     STREAM   STREAMBED  STREAMBED
                SEG.NO.  NO.  STRM. RCH.    AQUIFER    STRM. RCH.    RUNOFF     PRECIP       ET          HEAD       DEPTH      WIDTH   CONDCTNC.   GRADIENT

   1    1    1     1     1    1.5942E+01  1.9373E-01   1.5748E+01  0.000E+00  0.000E+00  0.000E+00  1.09408E+03  1.028E+00  1.069E+01  4.809E-02  1.343E+00
   1    2    2     1     2    1.5748E+01  2.9868E-01   1.5450E+01  0.000E+00  0.000E+00  0.000E+00  1.08908E+03  1.024E+00  1.060E+01  7.423E-02  1.341E+00
   1    3    3     1     3    1.5450E+01  2.5341E-01   1.5196E+01  0.000E+00  0.000E+00  0.000E+00  1.08344E+03  1.018E+00  1.051E+01  6.306E-02  1.339E+00
   1    3    4     1     4    1.5196E+01  2.3228E-01   1.4964E+01  0.000E+00  0.000E+00  0.000E+00  1.07842E+03  1.014E+00  1.043E+01  5.787E-02  1.338E+00
   1    4    5     2     1    1.2964E+01  2.9708E-01   1.2667E+01  0.000E+00  0.000E+00  0.000E+00  1.07274E+03  8.087E-01  1.200E+01  7.800E-02  1.270E+00
   1    5    6     2     2    1.2667E+01  2.2792E-01   1.2439E+01  0.000E+00  0.000E+00  0.000E+00  1.06731E+03  7.987E-01  1.200E+01  6.000E-02  1.266E+00
   1    6    6     2     3    1.2439E+01  2.2740E-01   1.2211E+01  0.000E+00  0.000E+00  0.000E+00  1.06258E+03  7.900E-01  1.200E+01  6.000E-02  1.263E+00
   1    7    6     2     4    1.2211E+01  2.2687E-01   1.1985E+01  0.000E+00  0.000E+00  0.000E+00  1.05786E+03  7.812E-01  1.200E+01  6.000E-02  1.260E+00
   1    8    6     2     5    1.1985E+01  2.2634E-01   1.1758E+01  0.000E+00  0.000E+00  0.000E+00  1.05313E+03  7.724E-01  1.200E+01  6.000E-02  1.257E+00
   1    3    5     3     1    2.0000E+00  2.8252E-01   1.7175E+00  0.000E+00  0.000E+00  0.000E+00  1.07555E+03  1.909E+00  9.636E+00  7.227E-02  1.955E+00
   1    3    6     3     2    1.7175E+00  2.4905E-01   1.4684E+00  0.000E+00  0.000E+00  0.000E+00  1.07264E+03  1.727E+00  8.909E+00  6.682E-02  1.864E+00
   1    3    7     3     3    1.4684E+00  1.9718E-01   1.2712E+00  0.000E+00  0.000E+00  0.000E+00  1.06987E+03  1.555E+00  8.218E+00  5.547E-02  1.777E+00
   1    4    8     3     4    1.2712E+00  2.2567E-01   1.0456E+00  0.000E+00  0.000E+00  0.000E+00  1.06682E+03  1.364E+00  7.455E+00  6.709E-02  1.682E+00
   1    5    8     3     5    1.0456E+00  1.5790E-01   8.8768E-01  0.000E+00  0.000E+00  0.000E+00  1.06362E+03  1.164E+00  6.655E+00  4.991E-02  1.582E+00
   1    6    8     3     6    8.8768E-01  5.5980E-02   8.3170E-01  0.000E+00  0.000E+00  0.000E+00  1.06158E+03  1.036E+00  6.145E+00  1.844E-02  1.518E+00
   1    5   10     4     1    1.0000E+01  9.0919E-02   9.9091E+00  0.000E+00  0.000E+00  0.000E+00  1.07836E+03  6.368E-01  1.000E+01  2.500E-02  1.212E+00
   1    5    9     4     2    9.9091E+00  1.8158E-01   9.7275E+00  0.000E+00  0.000E+00  0.000E+00  1.07154E+03  6.315E-01  1.000E+01  5.000E-02  1.211E+00
   1    6    8     4     3    9.7275E+00  1.2689E-01   9.6006E+00  0.000E+00  0.000E+00  0.000E+00  1.06381E+03  6.256E-01  1.000E+01  3.500E-02  1.209E+00
   1    6    8     5     1    1.0432E+01  2.2686E-01   1.0205E+01  0.000E+00  0.000E+00  0.000E+00  1.05868E+03  6.790E-01  1.542E+01  6.166E-02  1.226E+00
   1    7    7     5     2    1.0205E+01  2.7894E-01   9.9265E+00  0.000E+00  0.000E+00  0.000E+00  1.05417E+03  6.732E-01  1.519E+01  7.594E-02  1.224E+00
   1    8    7     5     3    9.9265E+00  1.9221E-01   9.7343E+00  0.000E+00  0.000E+00  0.000E+00  1.04992E+03  6.676E-01  1.497E+01  5.241E-02  1.223E+00
   1    8    6     5     4    9.7343E+00  1.3577E-01   9.5985E+00  0.000E+00  0.000E+00  0.000E+00  1.04691E+03  6.637E-01  1.482E+01  3.706E-02  1.221E+00
   1    9    6     6     1    2.0707E+01  2.4520E-01   2.0462E+01  0.000E+00  0.000E+00  0.000E+00  1.04381E+03  1.087E+00  1.200E+01  6.000E-02  1.362E+00
   1   10    7     6     2    2.0462E+01  2.4473E-01   2.0217E+01  0.000E+00  0.000E+00  0.000E+00  1.03926E+03  1.079E+00  1.200E+01  6.000E-02  1.360E+00
   1   11    7     6     3    2.0217E+01  2.4427E-01   1.9973E+01  0.000E+00  0.000E+00  0.000E+00  1.03471E+03  1.071E+00  1.200E+01  6.000E-02  1.357E+00
   1   12    7     6     4    1.9973E+01  2.4380E-01   1.9729E+01  0.000E+00  0.000E+00  0.000E+00  1.03015E+03  1.063E+00  1.200E+01  6.000E-02  1.354E+00
   1   13    7     6     5    1.9729E+01 -3.5998E-02   1.9765E+01  0.000E+00  0.000E+00  0.000E+00  1.02697E+03  1.060E+00  1.200E+01  2.400E-01 -5.000E-02
   1   14    9     7     1    1.5000E+02  1.3434E+00   1.4866E+02  0.000E+00  0.000E+00  0.000E+00  1.03987E+03  2.288E+00  5.529E+01  5.593E-01  8.006E-01
   1   13    8     7     2    1.4866E+02  1.8281E+00   1.4683E+02  0.000E+00  0.000E+00  0.000E+00  1.03478E+03  2.279E+00  5.526E+01  6.148E-01  9.912E-01
   1   13    7     7     3    1.4683E+02  1.4357E+00   1.4539E+02  0.000E+00  0.000E+00  0.000E+00  1.02969E+03  2.271E+00  5.522E+01  5.585E-01  8.570E-01
   1   13    6     8     1    1.6516E+02  8.5510E-01   1.6430E+02  0.000E+00  0.000E+00  0.000E+00  1.02479E+03  2.918E+00  4.230E+01  4.311E-01  6.612E-01
   1   13    5     8     2    1.6430E+02  1.1676E-01   1.6419E+02  0.000E+00  0.000E+00  0.000E+00  1.01854E+03  2.914E+00  4.226E+01  4.306E-01  9.038E-02
   1   13    4     8     3    1.6419E+02 -2.6314E+00   1.6682E+02  0.000E+00  0.000E+00  0.000E+00  1.01230E+03  2.923E+00  4.238E+01  4.319E+00 -2.031E-01
   1   13    3     8     4    1.6682E+02 -3.7365E+00   1.7055E+02  0.000E+00  0.000E+00  0.000E+00  1.00607E+03  2.944E+00  4.268E+01  4.349E+00 -2.864E-01
   1   13    2     8     5    1.7055E+02 -2.5849E+00   1.7314E+02  0.000E+00  0.000E+00  0.000E+00  9.99839E+02  2.964E+00  4.298E+01  4.380E+00 -1.967E-01
   1   13    1     8     6    1.7314E+02 -1.9635E+00   1.7510E+02  0.000E+00  0.000E+00  0.000E+00  9.94854E+02  2.979E+00  4.319E+01  2.641E+00 -2.478E-01
   1    8    6     9     1    6.4971E-01  0.0000E+00   6.4971E-01  0.000E+00  0.000E+00  0.000E+00  1.07919E+03  4.394E-01  4.000E+00  0.000E+00  1.146E+00
   1    8    5     9     2    6.4971E-01  0.0000E+00   6.4971E-01  0.000E+00  0.000E+00  0.000E+00  1.07869E+03  4.394E-01  4.000E+00  0.000E+00  1.146E+00





UNSATURATED ZONE PACKAGE VOLUMETRIC BUDGET FOR  TIME STEP    30 STRESS PERIOD   47
  ------------------------------------------------------------------------------



     CUMULATIVE VOLUMES      L**3       RATES FOR THIS TIME STEP      L**3/T
     ------------------                 ------------------------

           IN:                                      IN:
           ---                                      ---
        INFILTRATION =  5850940022.3862          INFILTRATION =           1.4972

          OUT:                                     OUT:
          ----                                     ----
              UZF ET =  1710589095.1291                UZF ET =           1.5675
        UZF RECHARGE =  3704621792.9846          UZF RECHARGE =           9.7231

            IN - OUT =   435729134.2726              IN - OUT =          -9.7934

          STORAGE:                                 STORAGE:
          --------                                 --------
      STORAGE CHANGE =   435711654.3187        STORAGE CHANGE =          -9.7934

 PERCENT DISCREPANCY IS DIFFERENCE BETWEEN IN-OUT MINUS CHANGE IN STORAGE
 DIVIDED BY THE AVERAGE OF IN AND OUT TIMES 100

 PERCENT DISCREPANCY =           0.00     PERCENT DISCREPANCY =           0.00






1
  VOLUMETRIC BUDGET FOR AGRICULTURAL FIELDS AT  END OF TIME STEP   30, STRESS PERIOD  47
  ------------------------------------------------------------------------------

     CUMULATIVE VOLUMES      L**3       RATES FOR THIS TIME STEP      L**3/T
     ------------------                 ------------------------

           IN:                                      IN:
           ---                                      ---
           AG WELLS      =  3861172224.0000             AG WELLS      =           0.0000
      DIVERSION SEGMENTS =  1887148800.0000        DIVERSION SEGMENTS =           0.6497
           GW IRRIGATION =           0.0000             GW IRRIGATION =           0.0000
           SW IRRIGATION =           0.0000             SW IRRIGATION =           0.0000
        SYSTEM LOSSES GW =           0.0000          SYSTEM LOSSES GW =           0.0000
        SYSTEM LOSSES SW =           0.0000          SYSTEM LOSSES SW =           0.0000

                TOTAL IN =  5748321280.0000                  TOTAL IN =           0.6497

          OUT:                                     OUT:
          ----                                     ----
           AG WELLS      =           0.0000             AG WELLS      =           0.0000
      DIVERSION SEGMENTS =           0.0000        DIVERSION SEGMENTS =           0.0000
           GW IRRIGATION =  3861172224.0000             GW IRRIGATION =           0.0000
           SW IRRIGATION =  1887181568.0000             SW IRRIGATION =           0.6497
        SYSTEM LOSSES GW =           0.0000          SYSTEM LOSSES GW =           0.0000
        SYSTEM LOSSES SW =           0.0000          SYSTEM LOSSES SW =           0.0000

               TOTAL OUT =  5748354048.0000                 TOTAL OUT =           0.6497

                IN - OUT =      -32768.0000                  IN - OUT =      -1.2994E-05

     PERCENT DISCREPANCY =          -0.00         PERCENT DISCREPANCY =          -0.00



1
  VOLUMETRIC BUDGET FOR ENTIRE MODEL AT END OF TIME STEP   30, STRESS PERIOD  47
  ------------------------------------------------------------------------------

     CUMULATIVE VOLUMES      L**3       RATES FOR THIS TIME STEP      L**3/T
     ------------------                 ------------------------

           IN:                                      IN:
           ---                                      ---
             STORAGE     =  3966409472.0000               STORAGE     =           3.6620
       CONSTANT HEAD     =           0.0000         CONSTANT HEAD     =           0.0000
     HEAD DEP BOUNDS     =    34653440.0000       HEAD DEP BOUNDS     =           0.2863
      STREAM LEAKAGE     =  1444220800.0000        STREAM LEAKAGE     =          11.1422
        UZF RECHARGE     =  3704621824.0000          UZF RECHARGE     =           9.7231
               GW ET     =           0.0000                 GW ET     =           0.0000
     SURFACE LEAKAGE     =           0.0000       SURFACE LEAKAGE     =           0.0000
           AG WELLS      =           0.0000             AG WELLS      =           0.0000

                TOTAL IN =  9149905920.0000                  TOTAL IN =          24.8136

          OUT:                                     OUT:
          ----                                     ----
             STORAGE     =  3943628544.0000               STORAGE     =          13.5665
       CONSTANT HEAD     =           0.0000         CONSTANT HEAD     =           0.0000
     HEAD DEP BOUNDS     =    35070484.0000       HEAD DEP BOUNDS     =           0.2887
      STREAM LEAKAGE     =  1309211264.0000        STREAM LEAKAGE     =          10.9524
        UZF RECHARGE     =           0.0000          UZF RECHARGE     =           0.0000
               GW ET     =      831874.7500                 GW ET     =           0.0000
     SURFACE LEAKAGE     =           0.0000       SURFACE LEAKAGE     =           0.0000
           AG WELLS      =  3861172224.0000             AG WELLS      =           0.0000

               TOTAL OUT =  9149915136.0000                 TOTAL OUT =          24.8076

                IN - OUT =       -9216.0000                  IN - OUT =       6.0368E-03

     PERCENT DISCREPANCY =          -0.00         PERCENT DISCREPANCY =           0.02






         TIME SUMMARY AT END OF TIME STEP   30 IN STRESS PERIOD   47
                    SECONDS     MINUTES      HOURS       DAYS        YEARS
                    -----------------------------------------------------------
   TIME STEP LENGTH  87667.      1461.1      24.352      1.0147     2.77799E-03
 STRESS PERIOD TIME 2.63000E+06  43833.      730.56      30.440     8.33397E-02
         TOTAL TIME 1.21065E+08 2.01775E+06  33629.      1401.2      3.8363    
1
1
                            STRESS PERIOD NO.   48, LENGTH =   2630000.    
                            -----------------------------------------------

                              NUMBER OF TIME STEPS =    30

                               MULTIPLIER FOR DELT =     1.000

                            INITIAL TIME STEP SIZE =   87666.66    

 REUSING NON-PARAMETER GHB CELLS FROM LAST STRESS PERIOD

      2 GHB CELLS

 REUSING STREAM SEGMENT DATA FROM LAST STRESS PERIOD



            AREAL INFILTRATION RATE
 READING ON UNIT   19 WITH FORMAT: (FREE)              

            1           2           3           4           5           6           7           8           9          10
 ........................................................................................................................
   1   1.0000E-10  2.0000E-10   0.000       0.000       0.000       0.000       0.000       0.000       0.000       0.000    
   2   2.0000E-10  1.0000E-10  2.0000E-10   0.000       0.000      8.0000E-10  8.0000E-10  5.0000E-10   0.000       0.000    
   3    0.000      5.0000E-10  1.0000E-10  1.0000E-10  8.0000E-10  8.0000E-10  5.0000E-10  5.0000E-10   0.000       0.000    
   4   8.0000E-10  5.0000E-10  1.0000E-10  1.0000E-10  1.0000E-10  1.0000E-10  1.0000E-10  1.0000E-10  2.0000E-10   0.000    
   5   8.0000E-10  5.0000E-10  1.0000E-10  1.0000E-10  1.0000E-10  1.0000E-10  1.0000E-10  1.0000E-10  1.0000E-10  1.0000E-10
   6   8.0000E-10  5.0000E-10  5.0000E-10  2.0000E-10  2.0000E-10  1.0000E-10  1.0000E-10  1.0000E-10  1.0000E-10  5.0000E-10
   7   8.0000E-10  5.0000E-10  5.0000E-10  2.0000E-10  2.0000E-10  1.0000E-10  1.0000E-10  2.0000E-10  2.0000E-10   0.000    
   8    0.000      5.0000E-10  5.0000E-10  2.0000E-10  2.0000E-10  1.0000E-10  1.0000E-10  2.0000E-10  5.0000E-10   0.000    
   9    0.000      5.0000E-10  5.0000E-10  2.0000E-10  2.0000E-10  1.0000E-10  1.0000E-10  2.0000E-10  5.0000E-10   0.000    
  10    0.000      5.0000E-10  5.0000E-10  2.0000E-10  2.0000E-10  1.0000E-10  1.0000E-10  2.0000E-10  5.0000E-10  8.0000E-10
  11    0.000      1.0000E-10  1.0000E-10  1.0000E-10  1.0000E-10  1.0000E-10  1.0000E-10  2.0000E-10  5.0000E-10   0.000    
  12   1.0000E-10  1.0000E-10  1.0000E-10  1.0000E-10  1.0000E-10  1.0000E-10  1.0000E-10  1.0000E-10  2.0000E-10   0.000    
  13   1.0000E-10  1.0000E-10  2.0000E-10  2.0000E-10  2.0000E-10  2.0000E-10  2.0000E-10  1.0000E-10  1.0000E-10   0.000    
  14    0.000      2.0000E-10  5.0000E-10  5.0000E-10  5.0000E-10  5.0000E-10  5.0000E-10  2.0000E-10  1.0000E-10   0.000    
  15    0.000       0.000      8.0000E-10  8.0000E-10  8.0000E-10  8.0000E-10   0.000       0.000       0.000       0.000    

                  ET RATE =  5.000000E-10

 USING ET EXTINCTION DEPTH FROM PREVIOUS STRESS PERIOD. CURRENT PERIOD IS:      48

 USING EXTINCTION WATER CONTENT FROM PREVIOUS STRESS PERIOD. CURRENT PERIOD IS:      48

 USING AIR ENTRY PRESSURE FROM PREVIOUS STRESS PERIOD. CURRENT PERIOD IS:      48

 USING ROOT PRESSURE HEAD FROM PREVIOUS STRESS PERIOD. CURRENT PERIOD IS:      48

 USING ROOT ACTIVITY FROM PREVIOUS STRESS PERIOD. CURRENT PERIOD IS:      48

 PROCESSING AG STRESS PERIOD DATA

 READING AG STRESS PERIOD DATA

 READING IRRIGATION SEGMENT

 READING IRRIGATION WELL

 READING SUPPLEMENTAL WELL

 END PROCESSING AG STRESS PERIOD DATA OPTIONS
 
 SOLVING FOR HEAD 
                                                   Max.-Head-Change                         Max.-Flux-Residual
  Residual-Control   Outer-Iter.   Inner-Iter.     Column Row Layer    Maximum-Head-Change  Column Row Layer    Maximum-Flux-Residual          L2-NORM 
          0                 1           2             3    7     1       0.2425719048E-01       6    7    1         0.9189624368E+00      0.2725512701E+01
          0                 2           2             5    8     1       0.2419512529E-02       5    8    1         0.1323914576E+00      0.3800707580E+00
          0                 3           2             5    8     1       0.7041035301E-03       5    8    1         0.3764380266E-01      0.8302243429E-01
          0                 4           2             5    8     1       0.2050531617E-03       5    8    1         0.1101180793E-01      0.2404923206E-01
          0                 5           1             5    8     1       0.5975962084E-04       5    8    1         0.3205295083E-02      0.7103919940E-02

    ------------------------------------------------
       NWT REQUIRED            5 OUTER ITERATIONS 
       AND A TOTAL OF          9 INNER ITERATIONS.
    ------------------------------------------------

 NO OUTPUT CONTROL FOR STRESS PERIOD   48   TIME STEP    1
 
 SOLVING FOR HEAD 
                                                   Max.-Head-Change                         Max.-Flux-Residual
  Residual-Control   Outer-Iter.   Inner-Iter.     Column Row Layer    Maximum-Head-Change  Column Row Layer    Maximum-Flux-Residual          L2-NORM 
          0                 1           2             3    7     1       0.2395623022E-01       6    7    1         0.9009794478E+00      0.2693379464E+01
          0                 2           2             5    8     1       0.2423326020E-02       5    8    1         0.1325334752E+00      0.3796101377E+00
          0                 3           2             5    8     1       0.7054076221E-03       5    8    1         0.3770860597E-01      0.8381756348E-01
          0                 4           2             5    8     1       0.2054890302E-03       5    8    1         0.1103286223E-01      0.2430986674E-01
          0                 5           1             5    8     1       0.5990283118E-04       5    8    1         0.3212333323E-02      0.7182503708E-02

    ------------------------------------------------
       NWT REQUIRED            5 OUTER ITERATIONS 
       AND A TOTAL OF          9 INNER ITERATIONS.
    ------------------------------------------------

 NO OUTPUT CONTROL FOR STRESS PERIOD   48   TIME STEP    2
 
 SOLVING FOR HEAD 
                                                   Max.-Head-Change                         Max.-Flux-Residual
  Residual-Control   Outer-Iter.   Inner-Iter.     Column Row Layer    Maximum-Head-Change  Column Row Layer    Maximum-Flux-Residual          L2-NORM 
          0                 1           2             3    7     1       0.2366350820E-01       6    7    1         0.8838084568E+00      0.2662599052E+01
          0                 2           2             5    8     1       0.2425809470E-02       5    8    1         0.1326063290E+00      0.3791347518E+00
          0                 3           2             5    8     1       0.7063175969E-03       5    8    1         0.3775243348E-01      0.8454852626E-01
          0                 4           2             5    8     1       0.2058081026E-03       5    8    1         0.1104773227E-01      0.2454957466E-01
          0                 5           1             5    8     1       0.6001142489E-04       5    8    1         0.3217537734E-02      0.7254806503E-02

    ------------------------------------------------
       NWT REQUIRED            5 OUTER ITERATIONS 
       AND A TOTAL OF          9 INNER ITERATIONS.
    ------------------------------------------------

 NO OUTPUT CONTROL FOR STRESS PERIOD   48   TIME STEP    3
 
 SOLVING FOR HEAD 
                                                   Max.-Head-Change                         Max.-Flux-Residual
  Residual-Control   Outer-Iter.   Inner-Iter.     Column Row Layer    Maximum-Head-Change  Column Row Layer    Maximum-Flux-Residual          L2-NORM 
          0                 1           2             3    7     1       0.2337823139E-01       6    7    1         0.8673883932E+00      0.2633055460E+01
          0                 2           2             5    8     1       0.2427072464E-02       5    8    1         0.1326157940E+00      0.3786369876E+00
          0                 3           2             5    8     1       0.7068654186E-03       5    8    1         0.3777700593E-01      0.8521828438E-01
          0                 4           2             5    8     1       0.2060197103E-03       5    8    1         0.1105691764E-01      0.2476943940E-01
          0                 5           1             4    8     1       0.6035188379E-04       5    8    1         0.3221054298E-02      0.7321170770E-02

    ------------------------------------------------
       NWT REQUIRED            5 OUTER ITERATIONS 
       AND A TOTAL OF          9 INNER ITERATIONS.
    ------------------------------------------------

 NO OUTPUT CONTROL FOR STRESS PERIOD   48   TIME STEP    4
 
 SOLVING FOR HEAD 
                                                   Max.-Head-Change                         Max.-Flux-Residual
  Residual-Control   Outer-Iter.   Inner-Iter.     Column Row Layer    Maximum-Head-Change  Column Row Layer    Maximum-Flux-Residual          L2-NORM 
          0                 1           2             3    7     1       0.2310061267E-01       6    7    1         0.8516906362E+00      0.2614650922E+01
          0                 2           2             5    8     1       0.2856254501E-02       5    8    1         0.1562699869E+00      0.3872823849E+00
          0                 3           2             5    8     1       0.8696134153E-03       5    8    1         0.4675961318E-01      0.9033786643E-01
          0                 4           2             5    8     1       0.2645846748E-03       5    8    1         0.1428765748E-01      0.2665847703E-01
          0                 5           1             5    8     1       0.8045172289E-04       5    8    1         0.4344196293E-02      0.7980477522E-02

    ------------------------------------------------
       NWT REQUIRED            5 OUTER ITERATIONS 
       AND A TOTAL OF          9 INNER ITERATIONS.
    ------------------------------------------------

 NO OUTPUT CONTROL FOR STRESS PERIOD   48   TIME STEP    5
 
 SOLVING FOR HEAD 
                                                   Max.-Head-Change                         Max.-Flux-Residual
  Residual-Control   Outer-Iter.   Inner-Iter.     Column Row Layer    Maximum-Head-Change  Column Row Layer    Maximum-Flux-Residual          L2-NORM 
          0                 1           2             3    7     1       0.2283092967E-01       5    8    1         0.8876437362E+00      0.2693862267E+01
          0                 2           2             5    8     1       0.5016945696E-02       5    8    1         0.2755588666E+00      0.4501020831E+00
          0                 3           2             5    8     1       0.1507663152E-02       5    8    1         0.8197292282E-01      0.1141137529E+00
          0                 4           2             5    8     1       0.4531443263E-03       5    8    1         0.2468717829E-01      0.3398223781E-01
          0                 5           1             5    8     1       0.1362166027E-03       5    8    1         0.7418145218E-02      0.1020240966E-01
          0                 6           1             5    8     1       0.4095241890E-04       5    8    1         0.2230081772E-02      0.3065228584E-02

    ------------------------------------------------
       NWT REQUIRED            6 OUTER ITERATIONS 
       AND A TOTAL OF         10 INNER ITERATIONS.
    ------------------------------------------------

 NO OUTPUT CONTROL FOR STRESS PERIOD   48   TIME STEP    6
 
 SOLVING FOR HEAD 
                                                   Max.-Head-Change                         Max.-Flux-Residual
  Residual-Control   Outer-Iter.   Inner-Iter.     Column Row Layer    Maximum-Head-Change  Column Row Layer    Maximum-Flux-Residual          L2-NORM 
          0                 1           2             3    7     1       0.2256827932E-01       5    8    1         0.8437177068E+00      0.2663684748E+01
          0                 2           2             5    8     1       0.4787269519E-02       5    8    1         0.2627648550E+00      0.4439347471E+00
          0                 3           2             5    8     1       0.1440625230E-02       5    8    1         0.7824117371E-01      0.1123841903E+00
          0                 4           2             5    8     1       0.4335579841E-03       5    8    1         0.2359773892E-01      0.3346536043E-01
          0                 5           1             5    8     1       0.1304886378E-03       5    8    1         0.7099763637E-02      0.1004734258E-01
          0                 6           1             5    8     1       0.3927574549E-04       5    8    1         0.2136949709E-02      0.3018684970E-02

    ------------------------------------------------
       NWT REQUIRED            6 OUTER ITERATIONS 
       AND A TOTAL OF         10 INNER ITERATIONS.
    ------------------------------------------------

 NO OUTPUT CONTROL FOR STRESS PERIOD   48   TIME STEP    7
 
 SOLVING FOR HEAD 
                                                   Max.-Head-Change                         Max.-Flux-Residual
  Residual-Control   Outer-Iter.   Inner-Iter.     Column Row Layer    Maximum-Head-Change  Column Row Layer    Maximum-Flux-Residual          L2-NORM 
          0                 1           2             3    7     1       0.2231277804E-01       6    7    1         0.8098454908E+00      0.2635507350E+01
          0                 2           2             5    8     1       0.4581303949E-02       5    8    1         0.2512943001E+00      0.4385546678E+00
          0                 3           2             5    8     1       0.1380466627E-02       5    8    1         0.7489430234E-01      0.1109129890E+00
          0                 4           2             5    8     1       0.4159700107E-03       5    8    1         0.2261991684E-01      0.3302389178E-01
          0                 5           1             5    8     1       0.1253418628E-03       5    8    1         0.6813819182E-02      0.9914235966E-02
          0                 6           1             5    8     1       0.3776829572E-04       5    8    1         0.2053254105E-02      0.2978557855E-02

    ------------------------------------------------
       NWT REQUIRED            6 OUTER ITERATIONS 
       AND A TOTAL OF         10 INNER ITERATIONS.
    ------------------------------------------------

 NO OUTPUT CONTROL FOR STRESS PERIOD   48   TIME STEP    8
 
 SOLVING FOR HEAD 
                                                   Max.-Head-Change                         Max.-Flux-Residual
  Residual-Control   Outer-Iter.   Inner-Iter.     Column Row Layer    Maximum-Head-Change  Column Row Layer    Maximum-Flux-Residual          L2-NORM 
          0                 1           2             3    7     1       0.2206471413E-01       6    7    1         0.7976809042E+00      0.2609014937E+01
          0                 2           2             5    8     1       0.4396281621E-02       5    8    1         0.2409923116E+00      0.4338199062E+00
          0                 3           2             5    8     1       0.1326388030E-02       5    8    1         0.7188743382E-01      0.1096537952E+00
          0                 4           2             5    8     1       0.4001492064E-03       5    8    1         0.2174075823E-01      0.3264464982E-01
          0                 5           1             5    8     1       0.1207093113E-03       5    8    1         0.6556563168E-02      0.9799335542E-02
          0                 6           1             5    8     1       0.3641064646E-04       5    8    1         0.1977908811E-02      0.2943733031E-02

    ------------------------------------------------
       NWT REQUIRED            6 OUTER ITERATIONS 
       AND A TOTAL OF         10 INNER ITERATIONS.
    ------------------------------------------------

 NO OUTPUT CONTROL FOR STRESS PERIOD   48   TIME STEP    9
 
 SOLVING FOR HEAD 
                                                   Max.-Head-Change                         Max.-Flux-Residual
  Residual-Control   Outer-Iter.   Inner-Iter.     Column Row Layer    Maximum-Head-Change  Column Row Layer    Maximum-Flux-Residual          L2-NORM 
          0                 1           2             3    7     1       0.2182287645E-01       6    7    1         0.7862132751E+00      0.2583940572E+01
          0                 2           2             5    8     1       0.4229769752E-02       5    8    1         0.2317232023E+00      0.4296088341E+00
          0                 3           2             5    8     1       0.1277683547E-02       5    8    1         0.6918107127E-01      0.1085663687E+00
          0                 4           2             5    8     1       0.3858904817E-03       5    8    1         0.2094881000E-01      0.3231608866E-01
          0                 5           1             5    8     1       0.1165313209E-03       5    8    1         0.6324666421E-02      0.9699346213E-02
          0                 6           1             5    8     1       0.3518541823E-04       5    8    1         0.1909944996E-02      0.2913312166E-02

    ------------------------------------------------
       NWT REQUIRED            6 OUTER ITERATIONS 
       AND A TOTAL OF         10 INNER ITERATIONS.
    ------------------------------------------------

 NO OUTPUT CONTROL FOR STRESS PERIOD   48   TIME STEP   10
 
 SOLVING FOR HEAD 
                                                   Max.-Head-Change                         Max.-Flux-Residual
  Residual-Control   Outer-Iter.   Inner-Iter.     Column Row Layer    Maximum-Head-Change  Column Row Layer    Maximum-Flux-Residual          L2-NORM 
          0                 1           2             3    7     1       0.2158803887E-01       6    7    1         0.7753919095E+00      0.2560114105E+01
          0                 2           2             5    8     1       0.4079567046E-02       5    8    1         0.2233638998E+00      0.4258300763E+00
          0                 3           2             5    8     1       0.1233716506E-02       5    8    1         0.6673950581E-01      0.1076196214E+00
          0                 4           2             5    8     1       0.3730094408E-03       5    8    1         0.2023375060E-01      0.3202926240E-01
          0                 5           1             5    8     1       0.1127544133E-03       5    8    1         0.6115138081E-02      0.9611699945E-02
          0                 6           1             5    8     1       0.3407708216E-04       5    8    1         0.1848495009E-02      0.2886546443E-02

    ------------------------------------------------
       NWT REQUIRED            6 OUTER ITERATIONS 
       AND A TOTAL OF         10 INNER ITERATIONS.
    ------------------------------------------------

 NO OUTPUT CONTROL FOR STRESS PERIOD   48   TIME STEP   11
 
 SOLVING FOR HEAD 
                                                   Max.-Head-Change                         Max.-Flux-Residual
  Residual-Control   Outer-Iter.   Inner-Iter.     Column Row Layer    Maximum-Head-Change  Column Row Layer    Maximum-Flux-Residual          L2-NORM 
          0                 1           2             3    7     1       0.2135946760E-01       6    7    1         0.7651461421E+00      0.2537363132E+01
          0                 2           2             5    8     1       0.3943903549E-02       5    8    1         0.2158156691E+00      0.4224019067E+00
          0                 3           2             5    8     1       0.1193973471E-02       5    8    1         0.6453400354E-01      0.1067859899E+00
          0                 4           2             5    8     1       0.3613569411E-03       5    8    1         0.1958725004E-01      0.3177617909E-01
          0                 5           1             5    8     1       0.1093352097E-03       5    8    1         0.5925557333E-02      0.9534088802E-02
          0                 6           1             5    8     1       0.3307300487E-04       5    8    1         0.1792854493E-02      0.2862767759E-02

    ------------------------------------------------
       NWT REQUIRED            6 OUTER ITERATIONS 
       AND A TOTAL OF         10 INNER ITERATIONS.
    ------------------------------------------------

 NO OUTPUT CONTROL FOR STRESS PERIOD   48   TIME STEP   12
 
 SOLVING FOR HEAD 
                                                   Max.-Head-Change                         Max.-Flux-Residual
  Residual-Control   Outer-Iter.   Inner-Iter.     Column Row Layer    Maximum-Head-Change  Column Row Layer    Maximum-Flux-Residual          L2-NORM 
          0                 1           2             3    7     1       0.2113741592E-01       6    7    1         0.7553996579E+00      0.2515545938E+01
          0                 2           2             5    8     1       0.3820984896E-02       5    8    1         0.2089782845E+00      0.4192599790E+00
          0                 3           2             5    8     1       0.1157934445E-02       5    8    1         0.6253544546E-01      0.1060437605E+00
          0                 4           2             5    8     1       0.3507820934E-03       5    8    1         0.1900087392E-01      0.3155050814E-01
          0                 5           1             5    8     1       0.1062298688E-03       5    8    1         0.5753475584E-02      0.9464674117E-02
          0                 6           1             5    8     1       0.3216043221E-04       5    8    1         0.1742311814E-02      0.2841440593E-02

    ------------------------------------------------
       NWT REQUIRED            6 OUTER ITERATIONS 
       AND A TOTAL OF         10 INNER ITERATIONS.
    ------------------------------------------------

 NO OUTPUT CONTROL FOR STRESS PERIOD   48   TIME STEP   13
 
 SOLVING FOR HEAD 
                                                   Max.-Head-Change                         Max.-Flux-Residual
  Residual-Control   Outer-Iter.   Inner-Iter.     Column Row Layer    Maximum-Head-Change  Column Row Layer    Maximum-Flux-Residual          L2-NORM 
          0                 1           2             3    7     1       0.2092137178E-01       6    7    1         0.7461144447E+00      0.2542386290E+01
          0                 2           2             4    8     1       0.4001593635E-02       4    8    1         0.2143006582E+00      0.4467673148E+00
          0                 3           2             4    8     1       0.1239800913E-02       4    8    1         0.6591949774E-01      0.1175412060E+00
          0                 4           2             4    8     1       0.3839818228E-03       4    8    1         0.2045336808E-01      0.3553376992E-01
          0                 5           2             4    8     1       0.1188809430E-03       4    8    1         0.6332807351E-02      0.1081589602E-01
          0                 6           1             4    8     1       0.3679258853E-04       4    8    1         0.1960502068E-02      0.3295634347E-02

    ------------------------------------------------
       NWT REQUIRED            6 OUTER ITERATIONS 
       AND A TOTAL OF         11 INNER ITERATIONS.
    ------------------------------------------------

 NO OUTPUT CONTROL FOR STRESS PERIOD   48   TIME STEP   14
 
 SOLVING FOR HEAD 
                                                   Max.-Head-Change                         Max.-Flux-Residual
  Residual-Control   Outer-Iter.   Inner-Iter.     Column Row Layer    Maximum-Head-Change  Column Row Layer    Maximum-Flux-Residual          L2-NORM 
          0                 1           2             3    7     1       0.2071497981E-01       4    8    1         0.9171838044E+00      0.2623799609E+01
          0                 2           2             4    8     1       0.5346215146E-02       4    8    1         0.2874241728E+00      0.4997028928E+00
          0                 3           2             4    8     1       0.1645144876E-02       4    8    1         0.8794514667E-01      0.1372176667E+00
          0                 4           2             4    8     1       0.5063235791E-03       4    8    1         0.2709486048E-01      0.4194037478E-01
          0                 5           2             4    8     1       0.1558517757E-03       4    8    1         0.8337971846E-02      0.1287854298E-01
          0                 6           1             4    8     1       0.4797876442E-04       4    8    1         0.2566652648E-02      0.3957269960E-02

    ------------------------------------------------
       NWT REQUIRED            6 OUTER ITERATIONS 
       AND A TOTAL OF         11 INNER ITERATIONS.
    ------------------------------------------------

 NO OUTPUT CONTROL FOR STRESS PERIOD   48   TIME STEP   15
 
 SOLVING FOR HEAD 
                                                   Max.-Head-Change                         Max.-Flux-Residual
  Residual-Control   Outer-Iter.   Inner-Iter.     Column Row Layer    Maximum-Head-Change  Column Row Layer    Maximum-Flux-Residual          L2-NORM 
          0                 1           2             3    7     1       0.2051888596E-01       5    7    1         0.9109441183E+00      0.2698957431E+01
          0                 2           2             5    7     1       0.5198574938E-02       5    7    1         0.2817857077E+00      0.5416435828E+00
          0                 3           2             4    8     1       0.1597208892E-02       5    7    1         0.8528392857E-01      0.1515053041E+00
          0                 4           2             4    8     1       0.4924163694E-03       4    8    1         0.2631583342E-01      0.4633121002E-01
          0                 5           2             4    8     1       0.1518520239E-03       4    8    1         0.8112439587E-02      0.1422017289E-01
          0                 6           1             4    8     1       0.4683926476E-04       4    8    1         0.2501937036E-02      0.4367169042E-02

    ------------------------------------------------
       NWT REQUIRED            6 OUTER ITERATIONS 
       AND A TOTAL OF         11 INNER ITERATIONS.
    ------------------------------------------------

 NO OUTPUT CONTROL FOR STRESS PERIOD   48   TIME STEP   16
 
 SOLVING FOR HEAD 
                                                   Max.-Head-Change                         Max.-Flux-Residual
  Residual-Control   Outer-Iter.   Inner-Iter.     Column Row Layer    Maximum-Head-Change  Column Row Layer    Maximum-Flux-Residual          L2-NORM 
          0                 1           2             3    7     1       0.2033403487E-01       5    7    1         0.8683750463E+00      0.2673016322E+01
          0                 2           2             4    8     1       0.5032812348E-02       4    8    1         0.2701308066E+00      0.5331924047E+00
          0                 3           2             4    8     1       0.1552768598E-02       4    8    1         0.8283639941E-01      0.1488450115E+00
          0                 4           2             4    8     1       0.4791765049E-03       4    8    1         0.2559021162E-01      0.4551928841E-01
          0                 5           2             4    8     1       0.1478982663E-03       4    8    1         0.7896127243E-02      0.1397229263E-01
          0                 6           1             4    8     1       0.4565590563E-04       4    8    1         0.2437303003E-02      0.4291368764E-02

    ------------------------------------------------
       NWT REQUIRED            6 OUTER ITERATIONS 
       AND A TOTAL OF         11 INNER ITERATIONS.
    ------------------------------------------------

 NO OUTPUT CONTROL FOR STRESS PERIOD   48   TIME STEP   17
 
 SOLVING FOR HEAD 
                                                   Max.-Head-Change                         Max.-Flux-Residual
  Residual-Control   Outer-Iter.   Inner-Iter.     Column Row Layer    Maximum-Head-Change  Column Row Layer    Maximum-Flux-Residual          L2-NORM 
          0                 1           2             3    7     1       0.2015867911E-01       4    8    1         0.8334543437E+00      0.2649228666E+01
          0                 2           2             4    8     1       0.4895961129E-02       4    8    1         0.2626138129E+00      0.5255973476E+00
          0                 3           2             4    8     1       0.1512011753E-02       4    8    1         0.8060212624E-01      0.1464468627E+00
          0                 4           2             4    8     1       0.4670096241E-03       4    8    1         0.2492438593E-01      0.4478250354E-01
          0                 5           2             4    8     1       0.1442579011E-03       4    8    1         0.7697246054E-02      0.1374608424E-01
          0                 6           1             4    8     1       0.4456432550E-04       4    8    1         0.2377763630E-02      0.4221859441E-02

    ------------------------------------------------
       NWT REQUIRED            6 OUTER ITERATIONS 
       AND A TOTAL OF         11 INNER ITERATIONS.
    ------------------------------------------------

 NO OUTPUT CONTROL FOR STRESS PERIOD   48   TIME STEP   18
 
 SOLVING FOR HEAD 
                                                   Max.-Head-Change                         Max.-Flux-Residual
  Residual-Control   Outer-Iter.   Inner-Iter.     Column Row Layer    Maximum-Head-Change  Column Row Layer    Maximum-Flux-Residual          L2-NORM 
          0                 1           2             3    7     1       0.2006235989E-01       4    7    1         0.8658606567E+00      0.2743482301E+01
          0                 2           2             4    7     1       0.5178554244E-02       4    7    1         0.2737562600E+00      0.5802605920E+00
          0                 3           2             4    7     1       0.1622957279E-02       4    7    1         0.8563170801E-01      0.1670086738E+00
          0                 4           2             4    7     1       0.5083839976E-03       4    7    1         0.2684619275E-01      0.5180590801E-01
          0                 5           2             4    7     1       0.1591774295E-03       4    7    1         0.8407951974E-02      0.1611162316E-01
          0                 6           1             4    7     1       0.4981873308E-04       4    7    1         0.2632310764E-02      0.5012296390E-02

    ------------------------------------------------
       NWT REQUIRED            6 OUTER ITERATIONS 
       AND A TOTAL OF         11 INNER ITERATIONS.
    ------------------------------------------------

 NO OUTPUT CONTROL FOR STRESS PERIOD   48   TIME STEP   19
 
 SOLVING FOR HEAD 
                                                   Max.-Head-Change                         Max.-Flux-Residual
  Residual-Control   Outer-Iter.   Inner-Iter.     Column Row Layer    Maximum-Head-Change  Column Row Layer    Maximum-Flux-Residual          L2-NORM 
          0                 1           2             3    7     1       0.2002167370E-01       4    7    1         0.9232715674E+00      0.2839422524E+01
          0                 2           2             4    7     1       0.5493517404E-02       4    7    1         0.2909094202E+00      0.6256533662E+00
          0                 3           2             4    7     1       0.1718030887E-02       4    7    1         0.9078858711E-01      0.1816882572E+00
          0                 4           2             4    7     1       0.5372332980E-03       4    7    1         0.2840493134E-01      0.5626539978E-01
          0                 5           2             4    7     1       0.1679739652E-03       4    7    1         0.8881543731E-02      0.1746301382E-01
          0                 6           1             4    7     1       0.5251275991E-04       4    7    1         0.2776884130E-02      0.5422540569E-02

    ------------------------------------------------
       NWT REQUIRED            6 OUTER ITERATIONS 
       AND A TOTAL OF         11 INNER ITERATIONS.
    ------------------------------------------------

 NO OUTPUT CONTROL FOR STRESS PERIOD   48   TIME STEP   20
 
 SOLVING FOR HEAD 
                                                   Max.-Head-Change                         Max.-Flux-Residual
  Residual-Control   Outer-Iter.   Inner-Iter.     Column Row Layer    Maximum-Head-Change  Column Row Layer    Maximum-Flux-Residual          L2-NORM 
          0                 1           2             3    7     1       0.1998397555E-01       4    7    1         0.9031456253E+00      0.2816475759E+01
          0                 2           2             4    7     1       0.5383050173E-02       4    7    1         0.2848858234E+00      0.6165328846E+00
          0                 3           2             4    7     1       0.1684813623E-02       4    7    1         0.8898061684E-01      0.1787391404E+00
          0                 4           2             4    7     1       0.5272199058E-03       4    7    1         0.2786096069E-01      0.5535395014E-01
          0                 5           2             4    7     1       0.1649477489E-03       4    7    1         0.8717457385E-02      0.1718176652E-01
          0                 6           1             4    7     1       0.5159595162E-04       4    7    1         0.2727263429E-02      0.5335693099E-02

    ------------------------------------------------
       NWT REQUIRED            6 OUTER ITERATIONS 
       AND A TOTAL OF         11 INNER ITERATIONS.
    ------------------------------------------------

 NO OUTPUT CONTROL FOR STRESS PERIOD   48   TIME STEP   21
 
 SOLVING FOR HEAD 
                                                   Max.-Head-Change                         Max.-Flux-Residual
  Residual-Control   Outer-Iter.   Inner-Iter.     Column Row Layer    Maximum-Head-Change  Column Row Layer    Maximum-Flux-Residual          L2-NORM 
          0                 1           2             3    7     1       0.1994127943E-01       4    7    1         0.8845203546E+00      0.2795020626E+01
          0                 2           2             4    7     1       0.5280437930E-02       4    7    1         0.2792970631E+00      0.6080014352E+00
          0                 3           2             4    7     1       0.1653866806E-02       4    7    1         0.8730054816E-01      0.1759836319E+00
          0                 4           2             4    7     1       0.5178541169E-03       4    7    1         0.2735373956E-01      0.5450443565E-01
          0                 5           2             4    7     1       0.1621043597E-03       4    7    1         0.8563826203E-02      0.1692020149E-01
          0                 6           1             4    7     1       0.5073019549E-04       4    7    1         0.2680586346E-02      0.5255072431E-02

    ------------------------------------------------
       NWT REQUIRED            6 OUTER ITERATIONS 
       AND A TOTAL OF         11 INNER ITERATIONS.
    ------------------------------------------------

 NO OUTPUT CONTROL FOR STRESS PERIOD   48   TIME STEP   22
 
 SOLVING FOR HEAD 
                                                   Max.-Head-Change                         Max.-Flux-Residual
  Residual-Control   Outer-Iter.   Inner-Iter.     Column Row Layer    Maximum-Head-Change  Column Row Layer    Maximum-Flux-Residual          L2-NORM 
          0                 1           2             3    7     1       0.1989509815E-01       4    7    1         0.8672720751E+00      0.2774758477E+01
          0                 2           2             4    7     1       0.5184840372E-02       4    7    1         0.2741050007E+00      0.6000369934E+00
          0                 3           2             4    7     1       0.1624941108E-02       4    7    1         0.8573386143E-01      0.1734063535E+00
          0                 4           2             4    7     1       0.5090741903E-03       4    7    1         0.2687927967E-01      0.5370688168E-01
          0                 5           2             4    7     1       0.1594315260E-03       4    7    1         0.8419701864E-02      0.1667386422E-01
          0                 6           1             4    7     1       0.4991430901E-04       4    7    1         0.2636679925E-02      0.5178941749E-02

    ------------------------------------------------
       NWT REQUIRED            6 OUTER ITERATIONS 
       AND A TOTAL OF         11 INNER ITERATIONS.
    ------------------------------------------------

 NO OUTPUT CONTROL FOR STRESS PERIOD   48   TIME STEP   23
 
 SOLVING FOR HEAD 
                                                   Max.-Head-Change                         Max.-Flux-Residual
  Residual-Control   Outer-Iter.   Inner-Iter.     Column Row Layer    Maximum-Head-Change  Column Row Layer    Maximum-Flux-Residual          L2-NORM 
          0                 1           2             3    7     1       0.1984439900E-01       4    7    1         0.8512188143E+00      0.2755563165E+01
          0                 2           2             4    7     1       0.5095374085E-02       4    7    1         0.2692566062E+00      0.5925551342E+00
          0                 3           2             4    7     1       0.1597793604E-02       4    7    1         0.8426658348E-01      0.1709798778E+00
          0                 4           2             4    7     1       0.5008121579E-03       4    7    1         0.2643367800E-01      0.5295371654E-01
          0                 5           2             4    7     1       0.1569101786E-03       4    7    1         0.8283991667E-02      0.1644064924E-01
          0                 6           1             4    7     1       0.4914292679E-04       4    7    1         0.2595237408E-02      0.5106709951E-02

    ------------------------------------------------
       NWT REQUIRED            6 OUTER ITERATIONS 
       AND A TOTAL OF         11 INNER ITERATIONS.
    ------------------------------------------------

 NO OUTPUT CONTROL FOR STRESS PERIOD   48   TIME STEP   24
 
 SOLVING FOR HEAD 
                                                   Max.-Head-Change                         Max.-Flux-Residual
  Residual-Control   Outer-Iter.   Inner-Iter.     Column Row Layer    Maximum-Head-Change  Column Row Layer    Maximum-Flux-Residual          L2-NORM 
          0                 1           2             3    7     1       0.1979107854E-01       4    7    1         0.8362323299E+00      0.2737263255E+01
          0                 2           2             4    7     1       0.5011405388E-02       4    7    1         0.2647158542E+00      0.5854849538E+00
          0                 3           2             4    7     1       0.1572244343E-02       4    7    1         0.8288849194E-01      0.1686832376E+00
          0                 4           2             4    7     1       0.4930167351E-03       4    7    1         0.2601403024E-01      0.5223908788E-01
          0                 5           2             4    7     1       0.1545256454E-03       4    7    1         0.8155867066E-02      0.1621890729E-01
          0                 6           1             4    7     1       0.4841183370E-04       4    7    1         0.2556021499E-02      0.5037904615E-02

    ------------------------------------------------
       NWT REQUIRED            6 OUTER ITERATIONS 
       AND A TOTAL OF         11 INNER ITERATIONS.
    ------------------------------------------------

 NO OUTPUT CONTROL FOR STRESS PERIOD   48   TIME STEP   25
 
 SOLVING FOR HEAD 
                                                   Max.-Head-Change                         Max.-Flux-Residual
  Residual-Control   Outer-Iter.   Inner-Iter.     Column Row Layer    Maximum-Head-Change  Column Row Layer    Maximum-Flux-Residual          L2-NORM 
          0                 1           2             3    7     1       0.1973519458E-01       4    7    1         0.8221877317E+00      0.2764448626E+01
          0                 2           2             4    7     1       0.4971413444E-02       4    7    1         0.2616007836E+00      0.6021417181E+00
          0                 3           2             4    7     1       0.1567672837E-02       4    7    1         0.8232737117E-01      0.1751302068E+00
          0                 4           2             4    7     1       0.4941144613E-03       4    7    1         0.2597040203E-01      0.5451928465E-01
          0                 5           2             4    7     1       0.1556704377E-03       4    7    1         0.8184181031E-02      0.1700929391E-01
          0                 6           1             4    7     1       0.4902309158E-04       4    7    1         0.2578168421E-02      0.5308530233E-02

    ------------------------------------------------
       NWT REQUIRED            6 OUTER ITERATIONS 
       AND A TOTAL OF         11 INNER ITERATIONS.
    ------------------------------------------------

 NO OUTPUT CONTROL FOR STRESS PERIOD   48   TIME STEP   26
 
 SOLVING FOR HEAD 
                                                   Max.-Head-Change                         Max.-Flux-Residual
  Residual-Control   Outer-Iter.   Inner-Iter.     Column Row Layer    Maximum-Head-Change  Column Row Layer    Maximum-Flux-Residual          L2-NORM 
          0                 1           2             3    7     1       0.1967972248E-01       4    6    1         0.9658194549E+00      0.2827610437E+01
          0                 2           2             4    6     1       0.5671769665E-02       4    6    1         0.3037086595E+00      0.6311496762E+00
          0                 3           2             4    6     1       0.1754224283E-02       4    6    1         0.9341884613E-01      0.1846983263E+00
          0                 4           2             4    6     1       0.5427855068E-03       4    6    1         0.2892718145E-01      0.5748968766E-01
          0                 5           2             4    6     1       0.1680121116E-03       4    6    1         0.8950166707E-02      0.1792904063E-01
          0                 6           1             4    6     1       0.5202544305E-04       4    6    1         0.2770718645E-02      0.5593460036E-02

    ------------------------------------------------
       NWT REQUIRED            6 OUTER ITERATIONS 
       AND A TOTAL OF         11 INNER ITERATIONS.
    ------------------------------------------------

 NO OUTPUT CONTROL FOR STRESS PERIOD   48   TIME STEP   27
 
 SOLVING FOR HEAD 
                                                   Max.-Head-Change                         Max.-Flux-Residual
  Residual-Control   Outer-Iter.   Inner-Iter.     Column Row Layer    Maximum-Head-Change  Column Row Layer    Maximum-Flux-Residual          L2-NORM 
          0                 1           2             3    7     1       0.1962515584E-01       4    6    1         0.9385160441E+00      0.2809400989E+01
          0                 2           2             4    6     1       0.5520088588E-02       4    6    1         0.2955010901E+00      0.6234133193E+00
          0                 3           2             4    6     1       0.1708285800E-02       4    6    1         0.9093045756E-01      0.1821718511E+00
          0                 4           2             4    6     1       0.5288596220E-03       4    6    1         0.2817366767E-01      0.5670471510E-01
          0                 5           2             4    6     1       0.1637867847E-03       4    6    1         0.8721680572E-02      0.1768567057E-01
          0                 6           1             4    6     1       0.5074228561E-04       4    6    1         0.2701377575E-02      0.5517960784E-02

    ------------------------------------------------
       NWT REQUIRED            6 OUTER ITERATIONS 
       AND A TOTAL OF         11 INNER ITERATIONS.
    ------------------------------------------------

 NO OUTPUT CONTROL FOR STRESS PERIOD   48   TIME STEP   28
 
 SOLVING FOR HEAD 
                                                   Max.-Head-Change                         Max.-Flux-Residual
  Residual-Control   Outer-Iter.   Inner-Iter.     Column Row Layer    Maximum-Head-Change  Column Row Layer    Maximum-Flux-Residual          L2-NORM 
          0                 1           2             3    7     1       0.1957115987E-01       4    6    1         0.9130942369E+00      0.2791775689E+01
          0                 2           2             4    6     1       0.5378537489E-02       4    6    1         0.2878475171E+00      0.6159741084E+00
          0                 3           2             4    6     1       0.1665367187E-02       4    6    1         0.8860764828E-01      0.1797409284E+00
          0                 4           2             4    6     1       0.5158348799E-03       4    6    1         0.2746949081E-01      0.5594869209E-01
          0                 5           2             4    6     1       0.1598306245E-03       4    6    1         0.8507921942E-02      0.1745107680E-01
          0                 6           1             4    6     1       0.4953960290E-04       4    6    1         0.2636436513E-02      0.5445125510E-02

    ------------------------------------------------
       NWT REQUIRED            6 OUTER ITERATIONS 
       AND A TOTAL OF         11 INNER ITERATIONS.
    ------------------------------------------------

 NO OUTPUT CONTROL FOR STRESS PERIOD   48   TIME STEP   29
 
 SOLVING FOR HEAD 
                                                   Max.-Head-Change                         Max.-Flux-Residual
  Residual-Control   Outer-Iter.   Inner-Iter.     Column Row Layer    Maximum-Head-Change  Column Row Layer    Maximum-Flux-Residual          L2-NORM 
          0                 1           2             3    7     1       0.1951701726E-01       4    6    1         0.8894084234E+00      0.2774671521E+01
          0                 2           2             4    6     1       0.5246352139E-02       4    6    1         0.2807056639E+00      0.6088122585E+00
          0                 3           2             4    6     1       0.1625244053E-02       4    6    1         0.8643797462E-01      0.1773999295E+00
          0                 4           2             4    6     1       0.5036453412E-03       4    6    1         0.2681099896E-01      0.5522002652E-01
          0                 5           2             4    6     1       0.1561242369E-03       4    6    1         0.8307817303E-02      0.1722480834E-01
          0                 6           1             4    7     1       0.4861944937E-04       4    6    1         0.2575579698E-02      0.5374830538E-02

    ------------------------------------------------
       NWT REQUIRED            6 OUTER ITERATIONS 
       AND A TOTAL OF         11 INNER ITERATIONS.
    ------------------------------------------------

 NO OUTPUT CONTROL FOR STRESS PERIOD   48   TIME STEP   30



 STREAM LISTING     PERIOD     48   STEP       30

 LAYER ROW COL. STREAM  RCH.  FLOW INTO     FLOW TO   FLOW OUT OF   OVRLND.     DIRECT     STREAM       STREAM     STREAM     STREAM   STREAMBED  STREAMBED
                SEG.NO.  NO.  STRM. RCH.    AQUIFER    STRM. RCH.    RUNOFF     PRECIP       ET          HEAD       DEPTH      WIDTH   CONDCTNC.   GRADIENT

   1    1    1     1     1    1.5750E+01  1.9239E-01   1.5557E+01  0.000E+00  0.000E+00  0.000E+00  1.09407E+03  1.025E+00  1.062E+01  4.780E-02  1.342E+00
   1    2    2     1     2    1.5557E+01  2.9659E-01   1.5261E+01  0.000E+00  0.000E+00  0.000E+00  1.08908E+03  1.020E+00  1.054E+01  7.378E-02  1.340E+00
   1    3    3     1     3    1.5261E+01  2.5163E-01   1.5009E+01  0.000E+00  0.000E+00  0.000E+00  1.08343E+03  1.015E+00  1.045E+01  6.268E-02  1.338E+00
   1    3    4     1     4    1.5009E+01  2.3063E-01   1.4778E+01  0.000E+00  0.000E+00  0.000E+00  1.07842E+03  1.010E+00  1.036E+01  5.751E-02  1.337E+00
   1    4    5     2     1    1.2778E+01  2.9653E-01   1.2482E+01  0.000E+00  0.000E+00  0.000E+00  1.07274E+03  8.017E-01  1.200E+01  7.800E-02  1.267E+00
   1    5    6     2     2    1.2482E+01  2.2750E-01   1.2254E+01  0.000E+00  0.000E+00  0.000E+00  1.06730E+03  7.916E-01  1.200E+01  6.000E-02  1.264E+00
   1    6    6     2     3    1.2254E+01  2.2697E-01   1.2027E+01  0.000E+00  0.000E+00  0.000E+00  1.06258E+03  7.829E-01  1.200E+01  6.000E-02  1.261E+00
   1    7    6     2     4    1.2027E+01  2.2644E-01   1.1801E+01  0.000E+00  0.000E+00  0.000E+00  1.05785E+03  7.741E-01  1.200E+01  6.000E-02  1.258E+00
   1    8    6     2     5    1.1801E+01  2.2591E-01   1.1575E+01  0.000E+00  0.000E+00  0.000E+00  1.05312E+03  7.652E-01  1.200E+01  6.000E-02  1.255E+00
   1    3    5     3     1    2.0000E+00  2.8252E-01   1.7175E+00  0.000E+00  0.000E+00  0.000E+00  1.07555E+03  1.909E+00  9.636E+00  7.227E-02  1.955E+00
   1    3    6     3     2    1.7175E+00  2.4905E-01   1.4684E+00  0.000E+00  0.000E+00  0.000E+00  1.07264E+03  1.727E+00  8.909E+00  6.682E-02  1.864E+00
   1    3    7     3     3    1.4684E+00  1.9718E-01   1.2712E+00  0.000E+00  0.000E+00  0.000E+00  1.06987E+03  1.555E+00  8.218E+00  5.547E-02  1.777E+00
   1    4    8     3     4    1.2712E+00  2.2567E-01   1.0456E+00  0.000E+00  0.000E+00  0.000E+00  1.06682E+03  1.364E+00  7.455E+00  6.709E-02  1.682E+00
   1    5    8     3     5    1.0456E+00  1.5790E-01   8.8768E-01  0.000E+00  0.000E+00  0.000E+00  1.06362E+03  1.164E+00  6.655E+00  4.991E-02  1.582E+00
   1    6    8     3     6    8.8768E-01  5.5980E-02   8.3170E-01  0.000E+00  0.000E+00  0.000E+00  1.06158E+03  1.036E+00  6.145E+00  1.844E-02  1.518E+00
   1    5   10     4     1    1.0000E+01  9.0919E-02   9.9091E+00  0.000E+00  0.000E+00  0.000E+00  1.07836E+03  6.368E-01  1.000E+01  2.500E-02  1.212E+00
   1    5    9     4     2    9.9091E+00  1.8158E-01   9.7275E+00  0.000E+00  0.000E+00  0.000E+00  1.07154E+03  6.315E-01  1.000E+01  5.000E-02  1.211E+00
   1    6    8     4     3    9.7275E+00  1.2689E-01   9.6006E+00  0.000E+00  0.000E+00  0.000E+00  1.06381E+03  6.256E-01  1.000E+01  3.500E-02  1.209E+00
   1    6    8     5     1    1.0432E+01  2.2686E-01   1.0205E+01  0.000E+00  0.000E+00  0.000E+00  1.05868E+03  6.790E-01  1.542E+01  6.166E-02  1.226E+00
   1    7    7     5     2    1.0205E+01  2.7894E-01   9.9265E+00  0.000E+00  0.000E+00  0.000E+00  1.05417E+03  6.732E-01  1.519E+01  7.594E-02  1.224E+00
   1    8    7     5     3    9.9265E+00  1.9221E-01   9.7343E+00  0.000E+00  0.000E+00  0.000E+00  1.04992E+03  6.676E-01  1.497E+01  5.241E-02  1.223E+00
   1    8    6     5     4    9.7343E+00  1.3577E-01   9.5985E+00  0.000E+00  0.000E+00  0.000E+00  1.04691E+03  6.637E-01  1.482E+01  3.706E-02  1.221E+00
   1    9    6     6     1    2.1173E+01  2.4608E-01   2.0927E+01  0.000E+00  0.000E+00  0.000E+00  1.04383E+03  1.101E+00  1.200E+01  6.000E-02  1.367E+00
   1   10    7     6     2    2.0927E+01  2.4562E-01   2.0682E+01  0.000E+00  0.000E+00  0.000E+00  1.03928E+03  1.094E+00  1.200E+01  6.000E-02  1.365E+00
   1   11    7     6     3    2.0682E+01  2.4515E-01   2.0437E+01  0.000E+00  0.000E+00  0.000E+00  1.03472E+03  1.086E+00  1.200E+01  6.000E-02  1.362E+00
   1   12    7     6     4    2.0437E+01  2.4468E-01   2.0192E+01  0.000E+00  0.000E+00  0.000E+00  1.03017E+03  1.078E+00  1.200E+01  6.000E-02  1.359E+00
   1   13    7     6     5    2.0192E+01 -3.1488E-02   2.0223E+01  0.000E+00  0.000E+00  0.000E+00  1.02698E+03  1.075E+00  1.200E+01  2.400E-01 -4.373E-02
   1   14    9     7     1    1.5000E+02  1.3429E+00   1.4866E+02  0.000E+00  0.000E+00  0.000E+00  1.03987E+03  2.288E+00  5.529E+01  5.593E-01  8.004E-01
   1   13    8     7     2    1.4866E+02  1.8276E+00   1.4683E+02  0.000E+00  0.000E+00  0.000E+00  1.03478E+03  2.279E+00  5.526E+01  6.148E-01  9.910E-01
   1   13    7     7     3    1.4683E+02  1.4380E+00   1.4539E+02  0.000E+00  0.000E+00  0.000E+00  1.02969E+03  2.271E+00  5.522E+01  5.585E-01  8.583E-01
   1   13    6     8     1    1.6561E+02  8.6324E-01   1.6475E+02  0.000E+00  0.000E+00  0.000E+00  1.02480E+03  2.921E+00  4.235E+01  4.315E-01  6.668E-01
   1   13    5     8     2    1.6475E+02  1.2501E-01   1.6463E+02  0.000E+00  0.000E+00  0.000E+00  1.01854E+03  2.917E+00  4.230E+01  4.311E-01  9.667E-02
   1   13    4     8     3    1.6463E+02 -2.6005E+00   1.6723E+02  0.000E+00  0.000E+00  0.000E+00  1.01230E+03  2.925E+00  4.242E+01  4.323E+00 -2.005E-01
   1   13    3     8     4    1.6723E+02 -3.7234E+00   1.7095E+02  0.000E+00  0.000E+00  0.000E+00  1.00607E+03  2.946E+00  4.272E+01  4.353E+00 -2.851E-01
   1   13    2     8     5    1.7095E+02 -2.5879E+00   1.7354E+02  0.000E+00  0.000E+00  0.000E+00  9.99842E+02  2.967E+00  4.302E+01  4.384E+00 -1.968E-01
   1   13    1     8     6    1.7354E+02 -1.9750E+00   1.7551E+02  0.000E+00  0.000E+00  0.000E+00  9.94856E+02  2.981E+00  4.323E+01  2.643E+00 -2.491E-01
   1    8    6     9     1    0.0000E+00  0.0000E+00   0.0000E+00  0.000E+00  0.000E+00  0.000E+00  1.07875E+03  0.000E+00  4.000E+00  0.000E+00  1.000E+00
   1    8    5     9     2    0.0000E+00  0.0000E+00   0.0000E+00  0.000E+00  0.000E+00  0.000E+00  1.07825E+03  0.000E+00  4.000E+00  0.000E+00  1.000E+00





UNSATURATED ZONE PACKAGE VOLUMETRIC BUDGET FOR  TIME STEP    30 STRESS PERIOD   48
  ------------------------------------------------------------------------------



     CUMULATIVE VOLUMES      L**3       RATES FOR THIS TIME STEP      L**3/T
     ------------------                 ------------------------

           IN:                                      IN:
           ---                                      ---
        INFILTRATION =  5853168947.2590          INFILTRATION =           0.8475

          OUT:                                     OUT:
          ----                                     ----
              UZF ET =  1712573390.2170                UZF ET =           0.7500
        UZF RECHARGE =  3735695784.7971          UZF RECHARGE =          13.9229

            IN - OUT =   404899772.2448              IN - OUT =         -13.8254

          STORAGE:                                 STORAGE:
          --------                                 --------
      STORAGE CHANGE =   404882292.3191        STORAGE CHANGE =         -13.8254

 PERCENT DISCREPANCY IS DIFFERENCE BETWEEN IN-OUT MINUS CHANGE IN STORAGE
 DIVIDED BY THE AVERAGE OF IN AND OUT TIMES 100

 PERCENT DISCREPANCY =           0.00     PERCENT DISCREPANCY =           0.00






1
  VOLUMETRIC BUDGET FOR AGRICULTURAL FIELDS AT  END OF TIME STEP   30, STRESS PERIOD  48
  ------------------------------------------------------------------------------

     CUMULATIVE VOLUMES      L**3       RATES FOR THIS TIME STEP      L**3/T
     ------------------                 ------------------------

           IN:                                      IN:
           ---                                      ---
           AG WELLS      =  3861172224.0000             AG WELLS      =           0.0000
      DIVERSION SEGMENTS =  1887148800.0000        DIVERSION SEGMENTS =           0.0000
           GW IRRIGATION =           0.0000             GW IRRIGATION =           0.0000
           SW IRRIGATION =           0.0000             SW IRRIGATION =           0.0000
        SYSTEM LOSSES GW =           0.0000          SYSTEM LOSSES GW =           0.0000
        SYSTEM LOSSES SW =           0.0000          SYSTEM LOSSES SW =           0.0000

                TOTAL IN =  5748321280.0000                  TOTAL IN =           0.0000

          OUT:                                     OUT:
          ----                                     ----
           AG WELLS      =           0.0000             AG WELLS      =           0.0000
      DIVERSION SEGMENTS =           0.0000        DIVERSION SEGMENTS =           0.0000
           GW IRRIGATION =  3861172224.0000             GW IRRIGATION =           0.0000
           SW IRRIGATION =  1887181568.0000             SW IRRIGATION =           0.0000
        SYSTEM LOSSES GW =           0.0000          SYSTEM LOSSES GW =           0.0000
        SYSTEM LOSSES SW =           0.0000          SYSTEM LOSSES SW =           0.0000

               TOTAL OUT =  5748354048.0000                 TOTAL OUT =           0.0000

                IN - OUT =      -32768.0000                  IN - OUT =           0.0000

     PERCENT DISCREPANCY =          -0.00         PERCENT DISCREPANCY =           0.00



1
  VOLUMETRIC BUDGET FOR ENTIRE MODEL AT END OF TIME STEP   30, STRESS PERIOD  48
  ------------------------------------------------------------------------------

     CUMULATIVE VOLUMES      L**3       RATES FOR THIS TIME STEP      L**3/T
     ------------------                 ------------------------

           IN:                                      IN:
           ---                                      ---
             STORAGE     =  3973619968.0000               STORAGE     =           2.0723
       CONSTANT HEAD     =           0.0000         CONSTANT HEAD     =           0.0000
     HEAD DEP BOUNDS     =    35406320.0000       HEAD DEP BOUNDS     =           0.2862
      STREAM LEAKAGE     =  1473537152.0000        STREAM LEAKAGE     =          11.1544
        UZF RECHARGE     =  3735695616.0000          UZF RECHARGE     =          13.9229
               GW ET     =           0.0000                 GW ET     =           0.0000
     SURFACE LEAKAGE     =           0.0000       SURFACE LEAKAGE     =           0.0000
           AG WELLS      =           0.0000             AG WELLS      =           0.0000

                TOTAL IN =  9218258944.0000                  TOTAL IN =          27.4358

          OUT:                                     OUT:
          ----                                     ----
             STORAGE     =  3982485504.0000               STORAGE     =          16.2245
       CONSTANT HEAD     =           0.0000         CONSTANT HEAD     =           0.0000
     HEAD DEP BOUNDS     =    35830164.0000       HEAD DEP BOUNDS     =           0.2889
      STREAM LEAKAGE     =  1337939712.0000        STREAM LEAKAGE     =          10.9183
        UZF RECHARGE     =           0.0000          UZF RECHARGE     =           0.0000
               GW ET     =      831874.7500                 GW ET     =           0.0000
     SURFACE LEAKAGE     =           0.0000       SURFACE LEAKAGE     =           0.0000
           AG WELLS      =  3861172224.0000             AG WELLS      =           0.0000

               TOTAL OUT =  9218258944.0000                 TOTAL OUT =          27.4317

                IN - OUT =           0.0000                  IN - OUT =       4.0855E-03

     PERCENT DISCREPANCY =           0.00         PERCENT DISCREPANCY =           0.01






         TIME SUMMARY AT END OF TIME STEP   30 IN STRESS PERIOD   48
                    SECONDS     MINUTES      HOURS       DAYS        YEARS
                    -----------------------------------------------------------
   TIME STEP LENGTH  87667.      1461.1      24.352      1.0147     2.77799E-03
 STRESS PERIOD TIME 2.63000E+06  43833.      730.56      30.440     8.33397E-02
         TOTAL TIME 1.23695E+08 2.06158E+06  34360.      1431.7      3.9197    
1
1
                            STRESS PERIOD NO.   49, LENGTH =   2630000.    
                            -----------------------------------------------

                              NUMBER OF TIME STEPS =    30

                               MULTIPLIER FOR DELT =     1.000

                            INITIAL TIME STEP SIZE =   87666.66    

 REUSING NON-PARAMETER GHB CELLS FROM LAST STRESS PERIOD

      2 GHB CELLS

 REUSING STREAM SEGMENT DATA FROM LAST STRESS PERIOD



            AREAL INFILTRATION RATE
 READING ON UNIT   19 WITH FORMAT: (FREE)              

            1           2           3           4           5           6           7           8           9          10
 ........................................................................................................................
   1   1.0000E-10  2.0000E-10   0.000       0.000       0.000       0.000       0.000       0.000       0.000       0.000    
   2   2.0000E-10  1.0000E-10  2.0000E-10   0.000       0.000      8.0000E-10  8.0000E-10  5.0000E-10   0.000       0.000    
   3    0.000      5.0000E-10  1.0000E-10  1.0000E-10  8.0000E-10  8.0000E-10  5.0000E-10  5.0000E-10   0.000       0.000    
   4   8.0000E-10  5.0000E-10  1.0000E-10  1.0000E-10  1.0000E-10  1.0000E-10  1.0000E-10  1.0000E-10  2.0000E-10   0.000    
   5   8.0000E-10  5.0000E-10  1.0000E-10  1.0000E-10  1.0000E-10  1.0000E-10  1.0000E-10  1.0000E-10  1.0000E-10  1.0000E-10
   6   8.0000E-10  5.0000E-10  5.0000E-10  2.0000E-10  2.0000E-10  1.0000E-10  1.0000E-10  1.0000E-10  1.0000E-10  5.0000E-10
   7   8.0000E-10  5.0000E-10  5.0000E-10  2.0000E-10  2.0000E-10  1.0000E-10  1.0000E-10  2.0000E-10  2.0000E-10   0.000    
   8    0.000      5.0000E-10  5.0000E-10  2.0000E-10  2.0000E-10  1.0000E-10  1.0000E-10  2.0000E-10  5.0000E-10   0.000    
   9    0.000      5.0000E-10  5.0000E-10  2.0000E-10  2.0000E-10  1.0000E-10  1.0000E-10  2.0000E-10  5.0000E-10   0.000    
  10    0.000      5.0000E-10  5.0000E-10  2.0000E-10  2.0000E-10  1.0000E-10  1.0000E-10  2.0000E-10  5.0000E-10  8.0000E-10
  11    0.000      1.0000E-10  1.0000E-10  1.0000E-10  1.0000E-10  1.0000E-10  1.0000E-10  2.0000E-10  5.0000E-10   0.000    
  12   1.0000E-10  1.0000E-10  1.0000E-10  1.0000E-10  1.0000E-10  1.0000E-10  1.0000E-10  1.0000E-10  2.0000E-10   0.000    
  13   1.0000E-10  1.0000E-10  2.0000E-10  2.0000E-10  2.0000E-10  2.0000E-10  2.0000E-10  1.0000E-10  1.0000E-10   0.000    
  14    0.000      2.0000E-10  5.0000E-10  5.0000E-10  5.0000E-10  5.0000E-10  5.0000E-10  2.0000E-10  1.0000E-10   0.000    
  15    0.000       0.000      8.0000E-10  8.0000E-10  8.0000E-10  8.0000E-10   0.000       0.000       0.000       0.000    

                  ET RATE =  5.000000E-10

 USING ET EXTINCTION DEPTH FROM PREVIOUS STRESS PERIOD. CURRENT PERIOD IS:      49

 USING EXTINCTION WATER CONTENT FROM PREVIOUS STRESS PERIOD. CURRENT PERIOD IS:      49

 USING AIR ENTRY PRESSURE FROM PREVIOUS STRESS PERIOD. CURRENT PERIOD IS:      49

 USING ROOT PRESSURE HEAD FROM PREVIOUS STRESS PERIOD. CURRENT PERIOD IS:      49

 USING ROOT ACTIVITY FROM PREVIOUS STRESS PERIOD. CURRENT PERIOD IS:      49

 PROCESSING AG STRESS PERIOD DATA

 READING AG STRESS PERIOD DATA

 READING IRRIGATION SEGMENT

 READING IRRIGATION WELL

 READING SUPPLEMENTAL WELL

 END PROCESSING AG STRESS PERIOD DATA OPTIONS
 
 SOLVING FOR HEAD 
                                                   Max.-Head-Change                         Max.-Flux-Residual
  Residual-Control   Outer-Iter.   Inner-Iter.     Column Row Layer    Maximum-Head-Change  Column Row Layer    Maximum-Flux-Residual          L2-NORM 
          0                 1           2             3    7     1       0.1946303572E-01       4    6    1         0.8672989906E+00      0.2758042337E+01
          0                 2           2             4    6     1       0.5122729663E-02       4    6    1         0.2740290174E+00      0.6019110775E+00
          0                 3           2             4    6     1       0.1590297372E-02       4    6    1         0.8451695391E-01      0.1751587189E+00
          0                 4           2             4    6     1       0.4932644909E-03       4    6    1         0.2624058881E-01      0.5452452922E-01
          0                 5           2             4    6     1       0.1530405223E-03       4    6    1         0.8138366849E-02      0.1700959011E-01
          0                 6           1             4    7     1       0.4829358870E-04       4    7    1         0.2535616209E-02      0.5308226018E-02

    ------------------------------------------------
       NWT REQUIRED            6 OUTER ITERATIONS 
       AND A TOTAL OF         11 INNER ITERATIONS.
    ------------------------------------------------

 NO OUTPUT CONTROL FOR STRESS PERIOD   49   TIME STEP    1
 
 SOLVING FOR HEAD 
                                                   Max.-Head-Change                         Max.-Flux-Residual
  Residual-Control   Outer-Iter.   Inner-Iter.     Column Row Layer    Maximum-Head-Change  Column Row Layer    Maximum-Flux-Residual          L2-NORM 
          0                 1           2             3    7     1       0.1940918014E-01       4    6    1         0.8467752705E+00      0.2741867413E+01
          0                 2           2             4    6     1       0.5012026422E-02       4    6    1         0.2679564804E+00      0.5952691806E+00
          0                 3           2             4    6     1       0.1554778439E-02       4    6    1         0.8260060788E-01      0.1729800884E+00
          0                 4           2             4    6     1       0.4824426468E-03       4    6    1         0.2565723028E-01      0.5384536608E-01
          0                 5           2             4    7     1       0.1517200158E-03       4    7    1         0.7963915238E-02      0.1679840815E-01
          0                 6           1             4    7     1       0.4787167388E-04       4    7    1         0.2514000363E-02      0.5242536203E-02

    ------------------------------------------------
       NWT REQUIRED            6 OUTER ITERATIONS 
       AND A TOTAL OF         11 INNER ITERATIONS.
    ------------------------------------------------

 NO OUTPUT CONTROL FOR STRESS PERIOD   49   TIME STEP    2
 
 SOLVING FOR HEAD 
                                                   Max.-Head-Change                         Max.-Flux-Residual
  Residual-Control   Outer-Iter.   Inner-Iter.     Column Row Layer    Maximum-Head-Change  Column Row Layer    Maximum-Flux-Residual          L2-NORM 
          0                 1           2             3    7     1       0.1935476778E-01       4    6    1         0.8279042724E+00      0.2726100087E+01
          0                 2           2             4    6     1       0.4905690262E-02       4    6    1         0.2622308789E+00      0.5888417289E+00
          0                 3           2             4    6     1       0.1522345419E-02       4    6    1         0.8085320481E-01      0.1708793807E+00
          0                 4           2             4    7     1       0.4765785095E-03       4    6    1         0.2512431144E-01      0.5319021003E-01
          0                 5           2             4    7     1       0.1504237450E-03       4    7    1         0.7897504362E-02      0.1659461663E-01
          0                 6           1             4    7     1       0.4745061519E-04       4    7    1         0.2492357971E-02      0.5179123910E-02

    ------------------------------------------------
       NWT REQUIRED            6 OUTER ITERATIONS 
       AND A TOTAL OF         11 INNER ITERATIONS.
    ------------------------------------------------

 NO OUTPUT CONTROL FOR STRESS PERIOD   49   TIME STEP    3
 
 SOLVING FOR HEAD 
                                                   Max.-Head-Change                         Max.-Flux-Residual
  Residual-Control   Outer-Iter.   Inner-Iter.     Column Row Layer    Maximum-Head-Change  Column Row Layer    Maximum-Flux-Residual          L2-NORM 
          0                 1           2             3    7     1       0.1930019425E-01       4    6    1         0.8101539208E+00      0.2710223083E+01
          0                 2           2             4    6     1       0.4805464564E-02       4    6    1         0.2568375641E+00      0.5825867022E+00
          0                 3           2             4    7     1       0.1496457690E-02       4    6    1         0.7920586792E-01      0.1688427015E+00
          0                 4           2             4    7     1       0.4725033327E-03       4    7    1         0.2480203476E-01      0.5255478660E-01
          0                 5           2             4    7     1       0.1491011003E-03       4    7    1         0.7829480490E-02      0.1639687759E-01
          0                 6           1             4    7     1       0.4702292581E-04       4    7    1         0.2470273598E-02      0.5117557491E-02

    ------------------------------------------------
       NWT REQUIRED            6 OUTER ITERATIONS 
       AND A TOTAL OF         11 INNER ITERATIONS.
    ------------------------------------------------

 NO OUTPUT CONTROL FOR STRESS PERIOD   49   TIME STEP    4
 
 SOLVING FOR HEAD 
                                                   Max.-Head-Change                         Max.-Flux-Residual
  Residual-Control   Outer-Iter.   Inner-Iter.     Column Row Layer    Maximum-Head-Change  Column Row Layer    Maximum-Flux-Residual          L2-NORM 
          0                 1           2             3    7     1       0.1924487534E-01       4    6    1         0.7934581336E+00      0.2694773533E+01
          0                 2           2             4    6     1       0.4711002731E-02       4    6    1         0.2517573290E+00      0.5765270362E+00
          0                 3           2             4    7     1       0.1483702479E-02       4    7    1         0.7781881722E-01      0.1668691605E+00
          0                 4           2             4    7     1       0.4683658355E-03       4    7    1         0.2458914902E-01      0.5193879007E-01
          0                 5           2             4    7     1       0.1477638501E-03       4    7    1         0.7760492557E-02      0.1620511301E-01
          0                 6           1             4    7     1       0.4659208827E-04       4    7    1         0.2447995082E-02      0.5057842302E-02

    ------------------------------------------------
       NWT REQUIRED            6 OUTER ITERATIONS 
       AND A TOTAL OF         11 INNER ITERATIONS.
    ------------------------------------------------

 NO OUTPUT CONTROL FOR STRESS PERIOD   49   TIME STEP    5
 
 SOLVING FOR HEAD 
                                                   Max.-Head-Change                         Max.-Flux-Residual
  Residual-Control   Outer-Iter.   Inner-Iter.     Column Row Layer    Maximum-Head-Change  Column Row Layer    Maximum-Flux-Residual          L2-NORM 
          0                 1           2             3    7     1       0.1918923881E-01       4    6    1         0.7777133133E+00      0.2679948139E+01
          0                 2           2             4    7     1       0.4657080170E-02       4    6    1         0.2469597571E+00      0.5706613239E+00
          0                 3           2             4    7     1       0.1470711635E-02       4    7    1         0.7715012592E-01      0.1649542646E+00
          0                 4           2             4    7     1       0.4641699814E-03       4    7    1         0.2437257513E-01      0.5134081101E-01
          0                 5           2             4    7     1       0.1464128095E-03       4    7    1         0.7690600156E-02      0.1601889003E-01
          0                 6           1             4    7     1       0.4615823365E-04       4    7    1         0.2425506051E-02      0.4999833832E-02

    ------------------------------------------------
       NWT REQUIRED            6 OUTER ITERATIONS 
       AND A TOTAL OF         11 INNER ITERATIONS.
    ------------------------------------------------

 NO OUTPUT CONTROL FOR STRESS PERIOD   49   TIME STEP    6
 
 SOLVING FOR HEAD 
                                                   Max.-Head-Change                         Max.-Flux-Residual
  Residual-Control   Outer-Iter.   Inner-Iter.     Column Row Layer    Maximum-Head-Change  Column Row Layer    Maximum-Flux-Residual          L2-NORM 
          0                 1           2             3    7     1       0.1913310082E-01       4    6    1         0.7628553484E+00      0.2705291174E+01
          0                 2           2             4    7     1       0.4605491721E-02       4    7    1         0.2424590058E+00      0.5504226226E+00
          0                 3           2             4    7     1       0.1450664785E-02       4    7    1         0.7625697968E-01      0.1533037140E+00
          0                 4           2             4    7     1       0.4564243227E-03       4    7    1         0.2402449043E-01      0.4668093017E-01
          0                 5           2             4    7     1       0.1434705150E-03       4    7    1         0.7556405515E-02      0.1437425510E-01
          0                 6           1             4    7     1       0.4506202771E-04       4    7    1         0.2374727844E-02      0.4446881955E-02

    ------------------------------------------------
       NWT REQUIRED            6 OUTER ITERATIONS 
       AND A TOTAL OF         11 INNER ITERATIONS.
    ------------------------------------------------

 NO OUTPUT CONTROL FOR STRESS PERIOD   49   TIME STEP    7
 
 SOLVING FOR HEAD 
                                                   Max.-Head-Change                         Max.-Flux-Residual
  Residual-Control   Outer-Iter.   Inner-Iter.     Column Row Layer    Maximum-Head-Change  Column Row Layer    Maximum-Flux-Residual          L2-NORM 
          0                 1           2             3    7     1       0.1907535230E-01       5    8    1        -0.7550016799E+00      0.2674212042E+01
          0                 2           2             4    7     1       0.4548092682E-02       4    7    1         0.2396547484E+00      0.5410251937E+00
          0                 3           2             4    7     1       0.1431087998E-02       4    7    1         0.7528495963E-01      0.1501767795E+00
          0                 4           2             4    7     1       0.4498613379E-03       4    7    1         0.2369455001E-01      0.4566828582E-01
          0                 5           2             4    7     1       0.1412989406E-03       4    7    1         0.7446201267E-02      0.1405450061E-01
          0                 6           1             4    7     1       0.4435085772E-04       4    7    1         0.2338366877E-02      0.4347328932E-02

    ------------------------------------------------
       NWT REQUIRED            6 OUTER ITERATIONS 
       AND A TOTAL OF         11 INNER ITERATIONS.
    ------------------------------------------------

 NO OUTPUT CONTROL FOR STRESS PERIOD   49   TIME STEP    8
 
 SOLVING FOR HEAD 
                                                   Max.-Head-Change                         Max.-Flux-Residual
  Residual-Control   Outer-Iter.   Inner-Iter.     Column Row Layer    Maximum-Head-Change  Column Row Layer    Maximum-Flux-Residual          L2-NORM 
          0                 1           2             3    7     1       0.1901627470E-01       4    7    1         0.7446391182E+00      0.2607887503E+01
          0                 2           2             4    7     1       0.4486953322E-02       4    7    1         0.2366063975E+00      0.5236231264E+00
          0                 3           2             4    7     1       0.1410672309E-02       4    7    1         0.7425573781E-01      0.1456861878E+00
          0                 4           2             4    7     1       0.4431249899E-03       4    7    1         0.2335202584E-01      0.4447201431E-01
          0                 5           2             4    7     1       0.1390959748E-03       4    7    1         0.7333472793E-02      0.1371688639E-01
          0                 6           1             4    7     1       0.4363536806E-04       4    7    1         0.2301573393E-02      0.4248187197E-02

    ------------------------------------------------
       NWT REQUIRED            6 OUTER ITERATIONS 
       AND A TOTAL OF         11 INNER ITERATIONS.
    ------------------------------------------------

 NO OUTPUT CONTROL FOR STRESS PERIOD   49   TIME STEP    9
 
 SOLVING FOR HEAD 
                                                   Max.-Head-Change                         Max.-Flux-Residual
  Residual-Control   Outer-Iter.   Inner-Iter.     Column Row Layer    Maximum-Head-Change  Column Row Layer    Maximum-Flux-Residual          L2-NORM 
          0                 1           2             3    7     1       0.1895517971E-01       4    7    1         0.7350223516E+00      0.2551880839E+01
          0                 2           2             4    7     1       0.4423066679E-02       4    7    1         0.2333699174E+00      0.5086657189E+00
          0                 3           2             4    7     1       0.1389704502E-02       4    7    1         0.7318538449E-01      0.1417567329E+00
          0                 4           2             4    7     1       0.4363019676E-03       4    7    1         0.2300156830E-01      0.4340787665E-01
          0                 5           2             4    7     1       0.1368901094E-03       4    7    1         0.7219646475E-02      0.1341293321E-01
          0                 6           1             4    7     1       0.4292581504E-04       4    7    1         0.2264826463E-02      0.4158226736E-02

    ------------------------------------------------
       NWT REQUIRED            6 OUTER ITERATIONS 
       AND A TOTAL OF         11 INNER ITERATIONS.
    ------------------------------------------------

 NO OUTPUT CONTROL FOR STRESS PERIOD   49   TIME STEP   10
 
 SOLVING FOR HEAD 
                                                   Max.-Head-Change                         Max.-Flux-Residual
  Residual-Control   Outer-Iter.   Inner-Iter.     Column Row Layer    Maximum-Head-Change  Column Row Layer    Maximum-Flux-Residual          L2-NORM 
          0                 1           2             3    7     1       0.1889245033E-01       4    7    1         0.7248742938E+00      0.2503225558E+01
          0                 2           2             4    7     1       0.4357490975E-02       4    7    1         0.2300132406E+00      0.4955367564E+00
          0                 3           2             4    7     1       0.1368429244E-02       4    7    1         0.7209019603E-01      0.1382448840E+00
          0                 4           2             4    7     1       0.4294444746E-03       4    7    1         0.2264688624E-01      0.4244198601E-01
          0                 5           2             4    7     1       0.1346907855E-03       4    7    1         0.7105490508E-02      0.1313404682E-01
          0                 6           1             4    7     1       0.4222319259E-04       4    7    1         0.2228255209E-02      0.4075118663E-02

    ------------------------------------------------
       NWT REQUIRED            6 OUTER ITERATIONS 
       AND A TOTAL OF         11 INNER ITERATIONS.
    ------------------------------------------------

 NO OUTPUT CONTROL FOR STRESS PERIOD   49   TIME STEP   11
 
 SOLVING FOR HEAD 
                                                   Max.-Head-Change                         Max.-Flux-Residual
  Residual-Control   Outer-Iter.   Inner-Iter.     Column Row Layer    Maximum-Head-Change  Column Row Layer    Maximum-Flux-Residual          L2-NORM 
          0                 1           2             3    7     1       0.1882752248E-01       4    7    1         0.7143607009E+00      0.2460668305E+01
          0                 2           2             4    7     1       0.4290963568E-02       4    7    1         0.2265805120E+00      0.4839496013E+00
          0                 3           2             4    7     1       0.1347039746E-02       4    7    1         0.7098184595E-01      0.1350878049E+00
          0                 4           2             4    7     1       0.4226023739E-03       4    7    1         0.2229102796E-01      0.4156021456E-01
          0                 5           2             4    7     1       0.1325106043E-03       4    7    1         0.6991787993E-02      0.1287681498E-01
          0                 6           1             4    7     1       0.4153059084E-04       4    7    1         0.2192056264E-02      0.3997976247E-02

    ------------------------------------------------
       NWT REQUIRED            6 OUTER ITERATIONS 
       AND A TOTAL OF         11 INNER ITERATIONS.
    ------------------------------------------------

 NO OUTPUT CONTROL FOR STRESS PERIOD   49   TIME STEP   12
 
 SOLVING FOR HEAD 
                                                   Max.-Head-Change                         Max.-Flux-Residual
  Residual-Control   Outer-Iter.   Inner-Iter.     Column Row Layer    Maximum-Head-Change  Column Row Layer    Maximum-Flux-Residual          L2-NORM 
          0                 1           2             3    7     1       0.1876088044E-01       4    7    1         0.7036444454E+00      0.2423234270E+01
          0                 2           2             4    7     1       0.4224239901E-02       4    7    1         0.2231161382E+00      0.4736799729E+00
          0                 3           2             4    7     1       0.1325740120E-02       4    7    1         0.6987237708E-01      0.1322381375E+00
          0                 4           2             4    7     1       0.4158304358E-03       4    7    1         0.2193724268E-01      0.4075243226E-01
          0                 5           2             4    7     1       0.1303641293E-03       4    7    1         0.6879409046E-02      0.1263890197E-01
          0                 6           1             4    7     1       0.4085183749E-04       4    7    1         0.2156460411E-02      0.3926216291E-02

    ------------------------------------------------
       NWT REQUIRED            6 OUTER ITERATIONS 
       AND A TOTAL OF         11 INNER ITERATIONS.
    ------------------------------------------------

 NO OUTPUT CONTROL FOR STRESS PERIOD   49   TIME STEP   13
 
 SOLVING FOR HEAD 
                                                   Max.-Head-Change                         Max.-Flux-Residual
  Residual-Control   Outer-Iter.   Inner-Iter.     Column Row Layer    Maximum-Head-Change  Column Row Layer    Maximum-Flux-Residual          L2-NORM 
          0                 1           2             3    7     1       0.1869204352E-01       4    7    1         0.6928450398E+00      0.2390063097E+01
          0                 2           2             4    7     1       0.4157852356E-02       4    7    1         0.2196519619E+00      0.4645271209E+00
          0                 3           2             4    7     1       0.1304670105E-02       4    7    1         0.6877022084E-01      0.1296526537E+00
          0                 4           2             4    7     1       0.4091648162E-03       4    7    1         0.2158773627E-01      0.4000907784E-01
          0                 5           2             4    7     1       0.1282605319E-03       4    7    1         0.6768921968E-02      0.1241801635E-01
          0                 6           1             4    7     1       0.4018919354E-04       4    7    1         0.2121610915E-02      0.3859243662E-02

    ------------------------------------------------
       NWT REQUIRED            6 OUTER ITERATIONS 
       AND A TOTAL OF         11 INNER ITERATIONS.
    ------------------------------------------------

 NO OUTPUT CONTROL FOR STRESS PERIOD   49   TIME STEP   14
 
 SOLVING FOR HEAD 
                                                   Max.-Head-Change                         Max.-Flux-Residual
  Residual-Control   Outer-Iter.   Inner-Iter.     Column Row Layer    Maximum-Head-Change  Column Row Layer    Maximum-Flux-Residual          L2-NORM 
          0                 1           2             3    7     1       0.1862155114E-01       4    7    1         0.6820436699E+00      0.2360454145E+01
          0                 2           2             4    7     1       0.4092139140E-02       4    7    1         0.2162089204E+00      0.4563205823E+00
          0                 3           2             4    7     1       0.1283913568E-02       4    7    1         0.6768066324E-01      0.1272940896E+00
          0                 4           2             4    7     1       0.4026255859E-03       4    7    1         0.2124381007E-01      0.3932179890E-01
          0                 5           2             4    7     1       0.1262043495E-03       4    7    1         0.6660634541E-02      0.1221211950E-01
          0                 6           1             4    7     1       0.3954358516E-04       4    7    1         0.2087575998E-02      0.3796520075E-02

    ------------------------------------------------
       NWT REQUIRED            6 OUTER ITERATIONS 
       AND A TOTAL OF         11 INNER ITERATIONS.
    ------------------------------------------------

 NO OUTPUT CONTROL FOR STRESS PERIOD   49   TIME STEP   15
 
 SOLVING FOR HEAD 
                                                   Max.-Head-Change                         Max.-Flux-Residual
  Residual-Control   Outer-Iter.   Inner-Iter.     Column Row Layer    Maximum-Head-Change  Column Row Layer    Maximum-Flux-Residual          L2-NORM 
          0                 1           2             3    7     1       0.1854896803E-01       4    7    1         0.6713178811E+00      0.2333844312E+01
          0                 2           2             4    7     1       0.4027440296E-02       4    7    1         0.2128074892E+00      0.4489263486E+00
          0                 3           2             4    7     1       0.1263558825E-02       4    7    1         0.6660907585E-01      0.1251341911E+00
          0                 4           2             4    7     1       0.3962353005E-03       4    7    1         0.2090685381E-01      0.3868451151E-01
          0                 5           2             4    7     1       0.1242012096E-03       4    7    1         0.6554899955E-02      0.1201978006E-01
          0                 6           1             4    7     1       0.3891636143E-04       4    7    1         0.2054443132E-02      0.3737669097E-02

    ------------------------------------------------
       NWT REQUIRED            6 OUTER ITERATIONS 
       AND A TOTAL OF         11 INNER ITERATIONS.
    ------------------------------------------------

 NO OUTPUT CONTROL FOR STRESS PERIOD   49   TIME STEP   16
 
 SOLVING FOR HEAD 
                                                   Max.-Head-Change                         Max.-Flux-Residual
  Residual-Control   Outer-Iter.   Inner-Iter.     Column Row Layer    Maximum-Head-Change  Column Row Layer    Maximum-Flux-Residual          L2-NORM 
          0                 1           2             3    7     1       0.1847487610E-01       4    7    1         0.6607442575E+00      0.2309745815E+01
          0                 2           2             4    7     1       0.3964093258E-02       4    7    1         0.2094680118E+00      0.4422213409E+00
          0                 3           2             4    7     1       0.1243693412E-02       4    7    1         0.6556078724E-01      0.1231455643E+00
          0                 4           2             4    7     1       0.3900162514E-03       4    7    1         0.2057824465E-01      0.3809093992E-01
          0                 5           2             4    7     1       0.1222566210E-03       4    7    1         0.6452066838E-02      0.1183939668E-01
          0                 6           1             4    7     1       0.3830884721E-04       4    7    1         0.2022297655E-02      0.3682326286E-02

    ------------------------------------------------
       NWT REQUIRED            6 OUTER ITERATIONS 
       AND A TOTAL OF         11 INNER ITERATIONS.
    ------------------------------------------------

 NO OUTPUT CONTROL FOR STRESS PERIOD   49   TIME STEP   17
 
 SOLVING FOR HEAD 
                                                   Max.-Head-Change                         Max.-Flux-Residual
  Residual-Control   Outer-Iter.   Inner-Iter.     Column Row Layer    Maximum-Head-Change  Column Row Layer    Maximum-Flux-Residual          L2-NORM 
          0                 1           2             3    7     1       0.1839887450E-01       4    7    1         0.6503691292E+00      0.2287804537E+01
          0                 2           2             4    7     1       0.3902290997E-02       4    7    1         0.2062023830E+00      0.4361267081E+00
          0                 3           2             4    7     1       0.1224365511E-02       4    7    1         0.6453881810E-01      0.1213096174E+00
          0                 4           2             4    7     1       0.3839800550E-03       4    7    1         0.2025873172E-01      0.3753700465E-01
          0                 5           2             4    7     1       0.1203732926E-03       4    7    1         0.6352313781E-02      0.1167027328E-01
          0                 6           1             4    7     1       0.3772164226E-04       4    7    1         0.1991180785E-02      0.3630337418E-02

    ------------------------------------------------
       NWT REQUIRED            6 OUTER ITERATIONS 
       AND A TOTAL OF         11 INNER ITERATIONS.
    ------------------------------------------------

 NO OUTPUT CONTROL FOR STRESS PERIOD   49   TIME STEP   18
 
 SOLVING FOR HEAD 
                                                   Max.-Head-Change                         Max.-Flux-Residual
  Residual-Control   Outer-Iter.   Inner-Iter.     Column Row Layer    Maximum-Head-Change  Column Row Layer    Maximum-Flux-Residual          L2-NORM 
          0                 1           2             3    7     1       0.1832128582E-01       4    5    1         0.6416811348E+00      0.2252756107E+01
          0                 2           2             4    7     1       0.3820002551E-02       4    7    1         0.2025524943E+00      0.4155628593E+00
          0                 3           2             4    7     1       0.1191730352E-02       4    7    1         0.6310827540E-01      0.1128732747E+00
          0                 4           2             4    7     1       0.3711786920E-03       4    7    1         0.1968972309E-01      0.3457524068E-01
          0                 5           2             4    7     1       0.1154700527E-03       4    7    1         0.6129900904E-02      0.1067408107E-01
          0                 6           1             4    7     1       0.3589022665E-04       4    7    1         0.1906438732E-02      0.3301340049E-02

    ------------------------------------------------
       NWT REQUIRED            6 OUTER ITERATIONS 
       AND A TOTAL OF         11 INNER ITERATIONS.
    ------------------------------------------------

 NO OUTPUT CONTROL FOR STRESS PERIOD   49   TIME STEP   19
 
 SOLVING FOR HEAD 
                                                   Max.-Head-Change                         Max.-Flux-Residual
  Residual-Control   Outer-Iter.   Inner-Iter.     Column Row Layer    Maximum-Head-Change  Column Row Layer    Maximum-Flux-Residual          L2-NORM 
          0                 1           2             3    7     1       0.1823631485E-01       4    8    1        -0.9646687054E+00      0.2403943052E+01
          0                 2           2             4    8     1      -0.3978212952E-02       4    8    1        -0.2177403935E+00      0.4514585454E+00
          0                 3           2             4    6     1       0.1142727263E-02       4    6    1         0.6068874539E-01      0.1176882169E+00
          0                 4           2             4    6     1       0.3543852343E-03       4    6    1         0.1885811470E-01      0.3452236010E-01
          0                 5           1             4    6     1       0.1098707672E-03       4    6    1         0.5846504171E-02      0.1037262696E-01
          0                 6           1             4    6     1       0.3405605332E-04       4    6    1         0.1812522106E-02      0.3155518427E-02

    ------------------------------------------------
       NWT REQUIRED            6 OUTER ITERATIONS 
       AND A TOTAL OF         10 INNER ITERATIONS.
    ------------------------------------------------

 NO OUTPUT CONTROL FOR STRESS PERIOD   49   TIME STEP   20
 
 SOLVING FOR HEAD 
                                                   Max.-Head-Change                         Max.-Flux-Residual
  Residual-Control   Outer-Iter.   Inner-Iter.     Column Row Layer    Maximum-Head-Change  Column Row Layer    Maximum-Flux-Residual          L2-NORM 
          0                 1           2             3    7     1       0.1813802331E-01       4    8    1        -0.8805053993E+00      0.2306400153E+01
          0                 2           2             4    8     1      -0.3626883619E-02       4    8    1        -0.1985025802E+00      0.4134778242E+00
          0                 3           2             4    6     1       0.1121790754E-02       4    6    1         0.5964373063E-01      0.1049522093E+00
          0                 4           2             4    6     1       0.3472970951E-03       4    6    1         0.1850583083E-01      0.3044650485E-01
          0                 5           1             4    6     1       0.1074607728E-03       4    6    1         0.5727081206E-02      0.9062596096E-02
          0                 6           1             4    6     1       0.3323474293E-04       4    6    1         0.1771883523E-02      0.2732677102E-02

    ------------------------------------------------
       NWT REQUIRED            6 OUTER ITERATIONS 
       AND A TOTAL OF         10 INNER ITERATIONS.
    ------------------------------------------------

 NO OUTPUT CONTROL FOR STRESS PERIOD   49   TIME STEP   21
 
 SOLVING FOR HEAD 
                                                   Max.-Head-Change                         Max.-Flux-Residual
  Residual-Control   Outer-Iter.   Inner-Iter.     Column Row Layer    Maximum-Head-Change  Column Row Layer    Maximum-Flux-Residual          L2-NORM 
          0                 1           2             3    7     1       0.1802575503E-01       5    7    1        -0.9800016955E+00      0.2444939996E+01
          0                 2           2             5    7     1      -0.3800682058E-02       5    7    1        -0.2137350253E+00      0.4435948545E+00
          0                 3           2             4    6     1       0.1095495973E-02       4    6    1         0.5839731826E-01      0.1074335101E+00
          0                 4           2             4    6     1       0.3378931247E-03       4    6    1         0.1805677928E-01      0.2955103424E-01
          0                 5           1             4    6     1       0.1041392701E-03       4    6    1         0.5566807722E-02      0.8476050709E-02
          0                 6           1             4    6     1       0.3207778152E-04       4    6    1         0.1715440715E-02      0.2495907882E-02

    ------------------------------------------------
       NWT REQUIRED            6 OUTER ITERATIONS 
       AND A TOTAL OF         10 INNER ITERATIONS.
    ------------------------------------------------

 NO OUTPUT CONTROL FOR STRESS PERIOD   49   TIME STEP   22
 
 SOLVING FOR HEAD 
                                                   Max.-Head-Change                         Max.-Flux-Residual
  Residual-Control   Outer-Iter.   Inner-Iter.     Column Row Layer    Maximum-Head-Change  Column Row Layer    Maximum-Flux-Residual          L2-NORM 
          0                 1           2             3    7     1       0.1789803582E-01       5    7    1        -0.8645063152E+00      0.2333478362E+01
          0                 2           2             4    6     1       0.3470451051E-02       5    7    1        -0.1882879623E+00      0.4135037291E+00
          0                 3           2             4    6     1       0.1069718916E-02       4    6    1         0.5709244761E-01      0.9985401385E-01
          0                 4           2             4    6     1       0.3294375379E-03       4    6    1         0.1762487089E-01      0.2766617796E-01
          0                 5           1             4    6     1       0.1013911530E-03       4    6    1         0.5425511767E-02      0.7982940910E-02
          0                 6           1             4    6     1       0.3119095854E-04       4    6    1         0.1669611189E-02      0.2360084021E-02

    ------------------------------------------------
       NWT REQUIRED            6 OUTER ITERATIONS 
       AND A TOTAL OF         10 INNER ITERATIONS.
    ------------------------------------------------

 NO OUTPUT CONTROL FOR STRESS PERIOD   49   TIME STEP   23
 
 SOLVING FOR HEAD 
                                                   Max.-Head-Change                         Max.-Flux-Residual
  Residual-Control   Outer-Iter.   Inner-Iter.     Column Row Layer    Maximum-Head-Change  Column Row Layer    Maximum-Flux-Residual          L2-NORM 
          0                 1           2             3    7     1       0.1770700286E-01       5    7    1        -0.7617425432E+00      0.2236887286E+01
          0                 2           2             4    6     1       0.3389620200E-02       4    6    1         0.1825701115E+00      0.3871135171E+00
          0                 3           2             4    6     1       0.1043319710E-02       4    6    1         0.5573978459E-01      0.9318992947E-01
          0                 4           2             4    6     1       0.3208947118E-03       4    6    1         0.1718416915E-01      0.2600619689E-01
          0                 5           1             4    6     1       0.9864589592E-04       4    6    1         0.5283191663E-02      0.7547500101E-02

    ------------------------------------------------
       NWT REQUIRED            5 OUTER ITERATIONS 
       AND A TOTAL OF          9 INNER ITERATIONS.
    ------------------------------------------------

 NO OUTPUT CONTROL FOR STRESS PERIOD   49   TIME STEP   24
 
 SOLVING FOR HEAD 
                                                   Max.-Head-Change                         Max.-Flux-Residual
  Residual-Control   Outer-Iter.   Inner-Iter.     Column Row Layer    Maximum-Head-Change  Column Row Layer    Maximum-Flux-Residual          L2-NORM 
          0                 1           2             3    7     1       0.1752366840E-01       5    7    1        -0.6702342010E+00      0.2152877528E+01
          0                 2           2             4    6     1       0.3307330668E-02       4    6    1         0.1783367939E+00      0.3641178233E+00
          0                 3           2             4    6     1       0.1016782519E-02       4    6    1         0.5436749523E-01      0.8733042016E-01
          0                 4           2             4    6     1       0.3123973825E-03       4    6    1         0.1674242134E-01      0.2454287613E-01
          0                 5           1             4    6     1       0.9593968243E-04       4    6    1         0.5141968703E-02      0.7162480493E-02

    ------------------------------------------------
       NWT REQUIRED            5 OUTER ITERATIONS 
       AND A TOTAL OF          9 INNER ITERATIONS.
    ------------------------------------------------

 NO OUTPUT CONTROL FOR STRESS PERIOD   49   TIME STEP   25
 
 SOLVING FOR HEAD 
                                                   Max.-Head-Change                         Max.-Flux-Residual
  Residual-Control   Outer-Iter.   Inner-Iter.     Column Row Layer    Maximum-Head-Change  Column Row Layer    Maximum-Flux-Residual          L2-NORM 
          0                 1           2             3    7     1       0.1724617767E-01       4    5    1         0.6245651936E+00      0.2050483849E+01
          0                 2           2             4    6     1       0.3136754961E-02       4    6    1         0.1712321887E+00      0.3278915467E+00
          0                 3           2             4    6     1       0.9500036919E-03       4    6    1         0.5135600543E-01      0.7573510939E-01
          0                 4           2             4    6     1       0.2878660614E-03       4    6    1         0.1558658603E-01      0.2094944682E-01
          0                 5           1             4    6     1       0.8727022189E-04       4    6    1         0.4722320555E-02      0.6020932230E-02

    ------------------------------------------------
       NWT REQUIRED            5 OUTER ITERATIONS 
       AND A TOTAL OF          9 INNER ITERATIONS.
    ------------------------------------------------

 NO OUTPUT CONTROL FOR STRESS PERIOD   49   TIME STEP   26
 
 SOLVING FOR HEAD 
                                                   Max.-Head-Change                         Max.-Flux-Residual
  Residual-Control   Outer-Iter.   Inner-Iter.     Column Row Layer    Maximum-Head-Change  Column Row Layer    Maximum-Flux-Residual          L2-NORM 
          0                 1           2             4    7     1      -0.1934774644E-01       4    7    1        -0.1052466722E+01      0.2263242435E+01
          0                 2           2             4    7     1      -0.4512156186E-02       4    7    1        -0.2443539963E+00      0.3864637701E+00
          0                 3           2             4    7     1      -0.1049508059E-02       4    7    1        -0.5708252549E-01      0.8615060071E-01
          0                 4           2             4    6     1       0.2456432973E-03       4    6    1         0.1354707627E-01      0.2162807201E-01
          0                 5           1             4    6     1       0.7282448633E-04       4    6    1         0.4005045316E-02      0.5626397549E-02

    ------------------------------------------------
       NWT REQUIRED            5 OUTER ITERATIONS 
       AND A TOTAL OF          9 INNER ITERATIONS.
    ------------------------------------------------

 NO OUTPUT CONTROL FOR STRESS PERIOD   49   TIME STEP   27
 
 SOLVING FOR HEAD 
                                                   Max.-Head-Change                         Max.-Flux-Residual
  Residual-Control   Outer-Iter.   Inner-Iter.     Column Row Layer    Maximum-Head-Change  Column Row Layer    Maximum-Flux-Residual          L2-NORM 
          0                 1           2             5    6     1      -0.1921390377E-01       5    6    1        -0.1079034829E+01      0.2402811190E+01
          0                 2           2             5    6     1      -0.4357862444E-02       5    6    1        -0.2392802066E+00      0.4317186386E+00
          0                 3           2             4    7     1      -0.9893942739E-03       5    6    1        -0.5476012105E-01      0.9605385876E-01
          0                 4           2             4    7     1      -0.2304698789E-03       4    7    1        -0.1251238262E-01      0.2307191229E-01
          0                 5           1             4    6     1       0.5600490509E-04       4    6    1         0.3135243460E-02      0.5680290118E-02

    ------------------------------------------------
       NWT REQUIRED            5 OUTER ITERATIONS 
       AND A TOTAL OF          9 INNER ITERATIONS.
    ------------------------------------------------

 NO OUTPUT CONTROL FOR STRESS PERIOD   49   TIME STEP   28
 
 SOLVING FOR HEAD 
                                                   Max.-Head-Change                         Max.-Flux-Residual
  Residual-Control   Outer-Iter.   Inner-Iter.     Column Row Layer    Maximum-Head-Change  Column Row Layer    Maximum-Flux-Residual          L2-NORM 
          0                 1           2             5    6     1      -0.1730603289E-01       5    6    1        -0.9715731776E+00      0.2281686137E+01
          0                 2           2             4    7     1      -0.3986988436E-02       5    6    1        -0.2155521046E+00      0.4021823570E+00
          0                 3           2             4    7     1      -0.9321565400E-03       4    7    1        -0.5050138855E-01      0.8866657806E-01
          0                 4           2             4    7     1      -0.2175676001E-03       4    7    1        -0.1179480728E-01      0.2121097593E-01
          0                 5           1             4    7     1      -0.5065543055E-04       4    7    1        -0.2751647970E-02      0.5194652310E-02

    ------------------------------------------------
       NWT REQUIRED            5 OUTER ITERATIONS 
       AND A TOTAL OF          9 INNER ITERATIONS.
    ------------------------------------------------

 NO OUTPUT CONTROL FOR STRESS PERIOD   49   TIME STEP   29
 
 SOLVING FOR HEAD 
                                                   Max.-Head-Change                         Max.-Flux-Residual
  Residual-Control   Outer-Iter.   Inner-Iter.     Column Row Layer    Maximum-Head-Change  Column Row Layer    Maximum-Flux-Residual          L2-NORM 
          0                 1           2             4    7     1      -0.1601705255E-01       5    6    1        -0.8754693994E+00      0.2173407843E+01
          0                 2           2             4    7     1      -0.3754362239E-02       4    7    1        -0.2024963760E+00      0.3758069297E+00
          0                 3           2             4    7     1      -0.8791885510E-03       4    7    1        -0.4757676430E-01      0.8207360791E-01
          0                 4           2             4    7     1      -0.2055854878E-03       4    7    1        -0.1113013236E-01      0.1955865056E-01
          0                 5           1             4    7     1      -0.4797040071E-04       4    7    1        -0.2601613740E-02      0.4766626966E-02

    ------------------------------------------------
       NWT REQUIRED            5 OUTER ITERATIONS 
       AND A TOTAL OF          9 INNER ITERATIONS.
    ------------------------------------------------

 NO OUTPUT CONTROL FOR STRESS PERIOD   49   TIME STEP   30



 STREAM LISTING     PERIOD     49   STEP       30

 LAYER ROW COL. STREAM  RCH.  FLOW INTO     FLOW TO   FLOW OUT OF   OVRLND.     DIRECT     STREAM       STREAM     STREAM     STREAM   STREAMBED  STREAMBED
                SEG.NO.  NO.  STRM. RCH.    AQUIFER    STRM. RCH.    RUNOFF     PRECIP       ET          HEAD       DEPTH      WIDTH   CONDCTNC.   GRADIENT

   1    1    1     1     1    1.4250E+01  1.8169E-01   1.4068E+01  0.000E+00  0.000E+00  0.000E+00  1.09404E+03  9.953E-01  1.011E+01  4.547E-02  1.332E+00
   1    2    2     1     2    1.4068E+01  2.7999E-01   1.3788E+01  0.000E+00  0.000E+00  0.000E+00  1.08905E+03  9.906E-01  1.002E+01  7.016E-02  1.330E+00
   1    3    3     1     3    1.3788E+01  2.3745E-01   1.3551E+01  0.000E+00  0.000E+00  0.000E+00  1.08340E+03  9.852E-01  9.930E+00  5.958E-02  1.328E+00
   1    3    4     1     4    1.3551E+01  2.1755E-01   1.3333E+01  0.000E+00  0.000E+00  0.000E+00  1.07839E+03  9.805E-01  9.848E+00  5.465E-02  1.327E+00
   1    4    5     2     1    1.1333E+01  2.9214E-01   1.1041E+01  0.000E+00  0.000E+00  0.000E+00  1.07268E+03  7.454E-01  1.200E+01  7.800E-02  1.248E+00
   1    5    6     2     2    1.1041E+01  2.2410E-01   1.0817E+01  0.000E+00  0.000E+00  0.000E+00  1.06724E+03  7.350E-01  1.200E+01  6.000E-02  1.245E+00
   1    6    6     2     3    1.0817E+01  2.2356E-01   1.0594E+01  0.000E+00  0.000E+00  0.000E+00  1.06252E+03  7.259E-01  1.200E+01  6.000E-02  1.242E+00
   1    7    6     2     4    1.0594E+01  2.2301E-01   1.0371E+01  0.000E+00  0.000E+00  0.000E+00  1.05779E+03  7.168E-01  1.200E+01  6.000E-02  1.239E+00
   1    8    6     2     5    1.0371E+01  2.2246E-01   1.0148E+01  0.000E+00  0.000E+00  0.000E+00  1.05307E+03  7.076E-01  1.200E+01  6.000E-02  1.236E+00
   1    3    5     3     1    2.0000E+00  2.8252E-01   1.7175E+00  0.000E+00  0.000E+00  0.000E+00  1.07555E+03  1.909E+00  9.636E+00  7.227E-02  1.955E+00
   1    3    6     3     2    1.7175E+00  2.4905E-01   1.4684E+00  0.000E+00  0.000E+00  0.000E+00  1.07264E+03  1.727E+00  8.909E+00  6.682E-02  1.864E+00
   1    3    7     3     3    1.4684E+00  1.9718E-01   1.2712E+00  0.000E+00  0.000E+00  0.000E+00  1.06987E+03  1.555E+00  8.218E+00  5.547E-02  1.777E+00
   1    4    8     3     4    1.2712E+00  2.2567E-01   1.0456E+00  0.000E+00  0.000E+00  0.000E+00  1.06682E+03  1.364E+00  7.455E+00  6.709E-02  1.682E+00
   1    5    8     3     5    1.0456E+00  1.5790E-01   8.8768E-01  0.000E+00  0.000E+00  0.000E+00  1.06362E+03  1.164E+00  6.655E+00  4.991E-02  1.582E+00
   1    6    8     3     6    8.8768E-01  5.5980E-02   8.3170E-01  0.000E+00  0.000E+00  0.000E+00  1.06158E+03  1.036E+00  6.145E+00  1.844E-02  1.518E+00
   1    5   10     4     1    1.0000E+01  9.0919E-02   9.9091E+00  0.000E+00  0.000E+00  0.000E+00  1.07836E+03  6.368E-01  1.000E+01  2.500E-02  1.212E+00
   1    5    9     4     2    9.9091E+00  1.8158E-01   9.7275E+00  0.000E+00  0.000E+00  0.000E+00  1.07154E+03  6.315E-01  1.000E+01  5.000E-02  1.211E+00
   1    6    8     4     3    9.7275E+00  1.2689E-01   9.6006E+00  0.000E+00  0.000E+00  0.000E+00  1.06381E+03  6.256E-01  1.000E+01  3.500E-02  1.209E+00
   1    6    8     5     1    1.0432E+01  2.2686E-01   1.0205E+01  0.000E+00  0.000E+00  0.000E+00  1.05868E+03  6.790E-01  1.542E+01  6.166E-02  1.226E+00
   1    7    7     5     2    1.0205E+01  2.7894E-01   9.9265E+00  0.000E+00  0.000E+00  0.000E+00  1.05417E+03  6.732E-01  1.519E+01  7.594E-02  1.224E+00
   1    8    7     5     3    9.9265E+00  1.9221E-01   9.7343E+00  0.000E+00  0.000E+00  0.000E+00  1.04992E+03  6.676E-01  1.497E+01  5.241E-02  1.223E+00
   1    8    6     5     4    9.7343E+00  1.3577E-01   9.5985E+00  0.000E+00  0.000E+00  0.000E+00  1.04691E+03  6.637E-01  1.482E+01  3.706E-02  1.221E+00
   1    9    6     6     1    1.9747E+01  2.4336E-01   1.9503E+01  0.000E+00  0.000E+00  0.000E+00  1.04378E+03  1.056E+00  1.200E+01  6.000E-02  1.352E+00
   1   10    7     6     2    1.9503E+01  2.4289E-01   1.9260E+01  0.000E+00  0.000E+00  0.000E+00  1.03923E+03  1.048E+00  1.200E+01  6.000E-02  1.349E+00
   1   11    7     6     3    1.9260E+01  2.4241E-01   1.9018E+01  0.000E+00  0.000E+00  0.000E+00  1.03468E+03  1.040E+00  1.200E+01  6.000E-02  1.347E+00
   1   12    7     6     4    1.9018E+01  2.4194E-01   1.8776E+01  0.000E+00  0.000E+00  0.000E+00  1.03012E+03  1.032E+00  1.200E+01  6.000E-02  1.344E+00
   1   13    7     6     5    1.8776E+01 -3.9467E-02   1.8815E+01  0.000E+00  0.000E+00  0.000E+00  1.02694E+03  1.029E+00  1.200E+01  2.400E-01 -5.482E-02
   1   14    9     7     1    1.5000E+02  1.3425E+00   1.4866E+02  0.000E+00  0.000E+00  0.000E+00  1.03987E+03  2.288E+00  5.529E+01  5.593E-01  8.001E-01
   1   13    8     7     2    1.4866E+02  1.8285E+00   1.4683E+02  0.000E+00  0.000E+00  0.000E+00  1.03478E+03  2.279E+00  5.526E+01  6.148E-01  9.914E-01
   1   13    7     7     3    1.4683E+02  1.4449E+00   1.4538E+02  0.000E+00  0.000E+00  0.000E+00  1.02969E+03  2.271E+00  5.522E+01  5.585E-01  8.625E-01
   1   13    6     8     1    1.6420E+02  8.6369E-01   1.6334E+02  0.000E+00  0.000E+00  0.000E+00  1.02479E+03  2.911E+00  4.221E+01  4.302E-01  6.693E-01
   1   13    5     8     2    1.6334E+02  1.2705E-01   1.6321E+02  0.000E+00  0.000E+00  0.000E+00  1.01853E+03  2.908E+00  4.216E+01  4.297E-01  9.856E-02
   1   13    4     8     3    1.6321E+02 -2.5898E+00   1.6580E+02  0.000E+00  0.000E+00  0.000E+00  1.01229E+03  2.916E+00  4.228E+01  4.309E+00 -2.004E-01
   1   13    3     8     4    1.6580E+02 -3.7171E+00   1.6952E+02  0.000E+00  0.000E+00  0.000E+00  1.00606E+03  2.937E+00  4.258E+01  4.340E+00 -2.855E-01
   1   13    2     8     5    1.6952E+02 -2.5918E+00   1.7211E+02  0.000E+00  0.000E+00  0.000E+00  9.99832E+02  2.957E+00  4.288E+01  4.370E+00 -1.977E-01
   1   13    1     8     6    1.7211E+02 -1.9846E+00   1.7409E+02  0.000E+00  0.000E+00  0.000E+00  9.94847E+02  2.972E+00  4.310E+01  2.635E+00 -2.510E-01
   1    8    6     9     1    0.0000E+00  0.0000E+00   0.0000E+00  0.000E+00  0.000E+00  0.000E+00  1.07875E+03  0.000E+00  4.000E+00  0.000E+00  1.000E+00
   1    8    5     9     2    0.0000E+00  0.0000E+00   0.0000E+00  0.000E+00  0.000E+00  0.000E+00  1.07825E+03  0.000E+00  4.000E+00  0.000E+00  1.000E+00





UNSATURATED ZONE PACKAGE VOLUMETRIC BUDGET FOR  TIME STEP    30 STRESS PERIOD   49
  ------------------------------------------------------------------------------



     CUMULATIVE VOLUMES      L**3       RATES FOR THIS TIME STEP      L**3/T
     ------------------                 ------------------------

           IN:                                      IN:
           ---                                      ---
        INFILTRATION =  5855397872.1317          INFILTRATION =           0.8475

          OUT:                                     OUT:
          ----                                     ----
              UZF ET =  1714545890.0965                UZF ET =           0.7500
        UZF RECHARGE =  3762050975.8544          UZF RECHARGE =           3.1664

            IN - OUT =   378801006.1809              IN - OUT =          -3.0689

          STORAGE:                                 STORAGE:
          --------                                 --------
      STORAGE CHANGE =   378783526.2648        STORAGE CHANGE =          -3.0689

 PERCENT DISCREPANCY IS DIFFERENCE BETWEEN IN-OUT MINUS CHANGE IN STORAGE
 DIVIDED BY THE AVERAGE OF IN AND OUT TIMES 100

 PERCENT DISCREPANCY =           0.00     PERCENT DISCREPANCY =          -0.00






1
  VOLUMETRIC BUDGET FOR AGRICULTURAL FIELDS AT  END OF TIME STEP   30, STRESS PERIOD  49
  ------------------------------------------------------------------------------

     CUMULATIVE VOLUMES      L**3       RATES FOR THIS TIME STEP      L**3/T
     ------------------                 ------------------------

           IN:                                      IN:
           ---                                      ---
           AG WELLS      =  3861172224.0000             AG WELLS      =           0.0000
      DIVERSION SEGMENTS =  1887148800.0000        DIVERSION SEGMENTS =           0.0000
           GW IRRIGATION =           0.0000             GW IRRIGATION =           0.0000
           SW IRRIGATION =           0.0000             SW IRRIGATION =           0.0000
        SYSTEM LOSSES GW =           0.0000          SYSTEM LOSSES GW =           0.0000
        SYSTEM LOSSES SW =           0.0000          SYSTEM LOSSES SW =           0.0000

                TOTAL IN =  5748321280.0000                  TOTAL IN =           0.0000

          OUT:                                     OUT:
          ----                                     ----
           AG WELLS      =           0.0000             AG WELLS      =           0.0000
      DIVERSION SEGMENTS =           0.0000        DIVERSION SEGMENTS =           0.0000
           GW IRRIGATION =  3861172224.0000             GW IRRIGATION =           0.0000
           SW IRRIGATION =  1887181568.0000             SW IRRIGATION =           0.0000
        SYSTEM LOSSES GW =           0.0000          SYSTEM LOSSES GW =           0.0000
        SYSTEM LOSSES SW =           0.0000          SYSTEM LOSSES SW =           0.0000

               TOTAL OUT =  5748354048.0000                 TOTAL OUT =           0.0000

                IN - OUT =      -32768.0000                  IN - OUT =           0.0000

     PERCENT DISCREPANCY =          -0.00         PERCENT DISCREPANCY =           0.00



1
  VOLUMETRIC BUDGET FOR ENTIRE MODEL AT END OF TIME STEP   30, STRESS PERIOD  49
  ------------------------------------------------------------------------------

     CUMULATIVE VOLUMES      L**3       RATES FOR THIS TIME STEP      L**3/T
     ------------------                 ------------------------

           IN:                                      IN:
           ---                                      ---
             STORAGE     =  3980821504.0000               STORAGE     =           4.9731
       CONSTANT HEAD     =           0.0000         CONSTANT HEAD     =           0.0000
     HEAD DEP BOUNDS     =    36159080.0000       HEAD DEP BOUNDS     =           0.2862
      STREAM LEAKAGE     =  1502706560.0000        STREAM LEAKAGE     =          11.0807
        UZF RECHARGE     =  3762051072.0000          UZF RECHARGE     =           3.1664
               GW ET     =           0.0000                 GW ET     =           0.0000
     SURFACE LEAKAGE     =           0.0000       SURFACE LEAKAGE     =           0.0000
           AG WELLS      =           0.0000             AG WELLS      =           0.0000

                TOTAL IN =  9281738752.0000                  TOTAL IN =          19.5064

          OUT:                                     OUT:
          ----                                     ----
             STORAGE     =  4016376832.0000               STORAGE     =           8.2962
       CONSTANT HEAD     =           0.0000         CONSTANT HEAD     =           0.0000
     HEAD DEP BOUNDS     =    36590004.0000       HEAD DEP BOUNDS     =           0.2888
      STREAM LEAKAGE     =  1366761984.0000        STREAM LEAKAGE     =          10.9227
        UZF RECHARGE     =           0.0000          UZF RECHARGE     =           0.0000
               GW ET     =      831874.7500                 GW ET     =           0.0000
     SURFACE LEAKAGE     =           0.0000       SURFACE LEAKAGE     =           0.0000
           AG WELLS      =  3861172224.0000             AG WELLS      =           0.0000

               TOTAL OUT =  9281732608.0000                 TOTAL OUT =          19.5077

                IN - OUT =        6144.0000                  IN - OUT =      -1.3447E-03

     PERCENT DISCREPANCY =           0.00         PERCENT DISCREPANCY =          -0.01






         TIME SUMMARY AT END OF TIME STEP   30 IN STRESS PERIOD   49
                    SECONDS     MINUTES      HOURS       DAYS        YEARS
                    -----------------------------------------------------------
   TIME STEP LENGTH  87667.      1461.1      24.352      1.0147     2.77799E-03
 STRESS PERIOD TIME 2.63000E+06  43833.      730.56      30.440     8.33397E-02
         TOTAL TIME 1.26325E+08 2.10542E+06  35090.      1462.1      4.0030    
1


 Run end date and time (yyyy/mm/dd hh:mm:ss): 2021/02/24 15:33:39
 Elapsed run time: 5.141 Seconds

