                                  MODFLOW-NWT-SWR1 
      U.S. GEOLOGICAL SURVEY MODULAR FINITE-DIFFERENCE GROUNDWATER-FLOW MODEL
                            VERSION 1.2.0 03/01/2020
                    BASED ON MODFLOW-2005 VERSION 1.12.00 02/03/2017

 LIST FILE: ./output/Agwater1_low.lst
                         UNIT    9

 OPENING ./input/Agwater1.ba6
 FILE TYPE:BAS6   UNIT   75   STATUS:OLD    
 FORMAT:FORMATTED              ACCESS:SEQUENTIAL          

 OPENING ./input/Agwater1.upw
 FILE TYPE:UPW   UNIT    7   STATUS:OLD    
 FORMAT:FORMATTED              ACCESS:SEQUENTIAL          

 OPENING ./input/Agwater1.dis
 FILE TYPE:DIS   UNIT    8   STATUS:OLD    
 FORMAT:FORMATTED              ACCESS:SEQUENTIAL          

 OPENING ./input/Agwater1.nwt
 FILE TYPE:NWT   UNIT   13   STATUS:OLD    
 FORMAT:FORMATTED              ACCESS:SEQUENTIAL          

 OPENING ./input/Agwater1.oc
 FILE TYPE:OC   UNIT   14   STATUS:OLD    
 FORMAT:FORMATTED              ACCESS:SEQUENTIAL          

 OPENING ./input/Agwater1.sfr
 FILE TYPE:SFR   UNIT   15   STATUS:OLD    
 FORMAT:FORMATTED              ACCESS:SEQUENTIAL          

 OPENING ./input/Agwater1.ghb
 FILE TYPE:GHB   UNIT   17   STATUS:OLD    
 FORMAT:FORMATTED              ACCESS:SEQUENTIAL          

 OPENING ./input/Agwater1_low.uzf
 FILE TYPE:UZF   UNIT   19   STATUS:OLD    
 FORMAT:FORMATTED              ACCESS:SEQUENTIAL          

 OPENING ./input/Agwater1.gag
 FILE TYPE:GAGE   UNIT   32   STATUS:OLD    
 FORMAT:FORMATTED              ACCESS:SEQUENTIAL          

 OPENING ./input/seg1.tab
 FILE TYPE:DATA   UNIT   55   STATUS:UNKNOWN
 FORMAT:FORMATTED              ACCESS:SEQUENTIAL          

 OPENING ./input/seg9.tab
 FILE TYPE:DATA   UNIT   56   STATUS:UNKNOWN
 FORMAT:FORMATTED              ACCESS:SEQUENTIAL          

 OPENING ./input/Agwater1.ag
 FILE TYPE:AG   UNIT   57   STATUS:OLD    
 FORMAT:FORMATTED              ACCESS:SEQUENTIAL          

 OPENING ./output/EP1b_Agwater1_low.hed
 FILE TYPE:DATA   UNIT   62   STATUS:UNKNOWN
 FORMAT:FORMATTED              ACCESS:SEQUENTIAL          

 OPENING ./output/Agwater1GW_low.ts5
 FILE TYPE:DATA   UNIT  105   STATUS:UNKNOWN
 FORMAT:FORMATTED              ACCESS:SEQUENTIAL          

 OPENING ./output/Agwater1GW_ET_low.ts5
 FILE TYPE:DATA   UNIT  106   STATUS:UNKNOWN
 FORMAT:FORMATTED              ACCESS:SEQUENTIAL          

 OPENING ./output/Agwater1GW_ET_low.all
 FILE TYPE:DATA   UNIT  107   STATUS:UNKNOWN
 FORMAT:FORMATTED              ACCESS:SEQUENTIAL          

 OPENING ./output/Agwater1GW_low.all
 FILE TYPE:DATA   UNIT  108   STATUS:UNKNOWN
 FORMAT:FORMATTED              ACCESS:SEQUENTIAL          

 OPENING ./output/Agwater1_low.uzfot
 FILE TYPE:DATA(BINARY)   UNIT   61   STATUS:UNKNOWN
 FORMAT:BINARY                 ACCESS:SEQUENTIAL          

 OPENING ./output/Agwater1cbc_low.unf
 FILE TYPE:DATA(BINARY)   UNIT  102   STATUS:UNKNOWN
 FORMAT:BINARY                 ACCESS:SEQUENTIAL          

 OPENING ./output/Agwater1_low.uzf1
 FILE TYPE:DATA   UNIT   65   STATUS:UNKNOWN
 FORMAT:FORMATTED              ACCESS:SEQUENTIAL          

 OPENING ./output/Agwater1_low.uzf2
 FILE TYPE:DATA   UNIT   66   STATUS:UNKNOWN
 FORMAT:FORMATTED              ACCESS:SEQUENTIAL          

 OPENING ./output/Agwater1_low.uzf3
 FILE TYPE:DATA   UNIT   67   STATUS:UNKNOWN
 FORMAT:FORMATTED              ACCESS:SEQUENTIAL          

 OPENING ./output/Agwater1_low.uzf4
 FILE TYPE:DATA   UNIT   68   STATUS:UNKNOWN
 FORMAT:FORMATTED              ACCESS:SEQUENTIAL          

 OPENING ./output/Agwater1_low.flw
 FILE TYPE:DATA   UNIT   81   STATUS:UNKNOWN
 FORMAT:FORMATTED              ACCESS:SEQUENTIAL          

 OPENING ./output/Agwater1_low.sg1
 FILE TYPE:DATA   UNIT   83   STATUS:UNKNOWN
 FORMAT:FORMATTED              ACCESS:SEQUENTIAL          

 OPENING ./output/Agwater1_low.sg2
 FILE TYPE:DATA   UNIT   84   STATUS:UNKNOWN
 FORMAT:FORMATTED              ACCESS:SEQUENTIAL          

 OPENING ./output/Agwater1_low.sg3
 FILE TYPE:DATA   UNIT   85   STATUS:UNKNOWN
 FORMAT:FORMATTED              ACCESS:SEQUENTIAL          

 OPENING ./output/Agwater1_low.sg4
 FILE TYPE:DATA   UNIT   86   STATUS:UNKNOWN
 FORMAT:FORMATTED              ACCESS:SEQUENTIAL          

 OPENING ./output/Agwater1_low.sg5
 FILE TYPE:DATA   UNIT   87   STATUS:UNKNOWN
 FORMAT:FORMATTED              ACCESS:SEQUENTIAL          

 OPENING ./output/Agwater1_low.sg6
 FILE TYPE:DATA   UNIT   88   STATUS:UNKNOWN
 FORMAT:FORMATTED              ACCESS:SEQUENTIAL          

 OPENING ./output/Agwater1_low.sg7
 FILE TYPE:DATA   UNIT   89   STATUS:UNKNOWN
 FORMAT:FORMATTED              ACCESS:SEQUENTIAL          

 OPENING ./output/Agwater1_low.sg8
 FILE TYPE:DATA   UNIT   90   STATUS:UNKNOWN
 FORMAT:FORMATTED              ACCESS:SEQUENTIAL          

 BAS -- BASIC PACKAGE, VERSION 1.1.4, 4/01/2018 INPUT READ FROM UNIT   75
 
 MODFLOW was compiled using mixed precision
 Precision of REAL variables:           6
 Precision of DOUBLE PRECISION variables:          15

 DISCRETIZATION INPUT DATA READ FROM UNIT    8
 #Test problem 2-- Discretization input
 #Example problem using the UZF1 Package
    1 LAYERS        15 ROWS        10 COLUMNS
   49 STRESS PERIOD(S) IN SIMULATION
 MODEL TIME UNIT IS SECONDS
 MODEL LENGTH UNIT IS FEET
  Confining bed flag for each layer:
   0

                     DELR =   5000.00    

                     DELC =   5000.00    



           TOP ELEVATION OF LAYER 1
 READING ON UNIT    8 WITH FORMAT: (10F7.0)            

            1           2           3           4           5           6           7           8           9          10
 ........................................................................................................................
   1    1105.       1105.       0.000       0.000       0.000       0.000       0.000       0.000       0.000       0.000    
   2    1105.       1095.       1105.       0.000       0.000       1100.       1100.       1110.       0.000       0.000    
   3    0.000       1100.       1085.       1080.       1078.       1076.       1073.       1090.       0.000       0.000    
   4    1110.       1100.       1090.       1085.       1076.       1080.       1080.       1070.       1100.       0.000    
   5    1110.       1100.       1085.       1080.       1078.       1074.       1077.       1066.       1075.       1080.    
   6    1105.       1095.       1080.       1077.       1073.       1069.       1070.       1063.       1085.       1095.    
   7    1105.       1090.       1075.       1072.       1070.       1065.       1065.       1069.       1090.       0.000    
   8    0.000       1080.       1070.       1068.       1063.       1060.       1063.       1067.       1090.       0.000    
   9    0.000       1075.       1065.       1062.       1058.       1052.       1055.       1065.       1090.       0.000    
  10    0.000       1070.       1060.       1055.       1046.       1046.       1044.       1060.       1088.       1100.    
  11    0.000       1055.       1050.       1045.       1041.       1042.       1040.       1050.       1075.       0.000    
  12    1027.       1028.       1028.       1032.       1032.       1033.       1032.       1040.       1060.       0.000    
  13    997.0       1004.       1008.       1014.       1020.       1027.       1032.       1038.       1050.       0.000    
  14    0.000       1030.       1040.       1045.       1050.       1050.       1050.       1050.       1044.       0.000    
  15    0.000       0.000       1080.       1080.       1080.       1080.       0.000       0.000       0.000       0.000    



             MODEL LAYER BOTTOM EL. FOR LAYER   1
 READING ON UNIT    8 WITH FORMAT: (10F7.0)            

            1           2           3           4           5           6           7           8           9          10
 ........................................................................................................................
   1    1000.       1000.       0.000       0.000       0.000       0.000       0.000       0.000       0.000       0.000    
   2    1000.       900.0       900.0       0.000       0.000       950.0       950.0       950.0       0.000       0.000    
   3    0.000       850.0       670.0       680.0       680.0       770.0       770.0       890.0       0.000       0.000    
   4    925.0       850.0       650.0       650.0       650.0       680.0       740.0       850.0       950.0       0.000    
   5    925.0       800.0       650.0       600.0       600.0       600.0       650.0       720.0       850.0       950.0    
   6    925.0       800.0       650.0       600.0       550.0       600.0       650.0       720.0       850.0       970.0    
   7    925.0       800.0       650.0       600.0       550.0       600.0       650.0       720.0       950.0       0.000    
   8    0.000       850.0       700.0       650.0       570.0       600.0       700.0       850.0       950.0       0.000    
   9    0.000       850.0       700.0       650.0       540.0       580.0       700.0       850.0       950.0       0.000    
  10    0.000       850.0       700.0       630.0       530.0       580.0       650.0       800.0       900.0       950.0    
  11    0.000       850.0       700.0       620.0       580.0       620.0       700.0       800.0       900.0       0.000    
  12    900.0       830.0       710.0       640.0       600.0       650.0       700.0       800.0       900.0       0.000    
  13    900.0       810.0       750.0       700.0       650.0       700.0       750.0       800.0       900.0       0.000    
  14    0.000       950.0       850.0       850.0       850.0       850.0       850.0       850.0       850.0       0.000    
  15    0.000       0.000       950.0       950.0       950.0       950.0       0.000       0.000       0.000       0.000    


 STRESS PERIOD     LENGTH       TIME STEPS     MULTIPLIER FOR DELT    SS FLAG
 ----------------------------------------------------------------------------
        1         86400.00          1                    1.000         SS
        2         2630000.         30                    1.000         TR
        3         2630000.         30                    1.000         TR
        4         2630000.         30                    1.000         TR
        5         2630000.         30                    1.000         TR
        6         2630000.         30                    1.000         TR
        7         2630000.         30                    1.000         TR
        8         2630000.         30                    1.000         TR
        9         2630000.         30                    1.000         TR
       10         2630000.         30                    1.000         TR
       11         2630000.         30                    1.000         TR
       12         2630000.         30                    1.000         TR
       13         2630000.         30                    1.000         TR
       14         2630000.         30                    1.000         TR
       15         2630000.         30                    1.000         TR
       16         2630000.         30                    1.000         TR
       17         2630000.         30                    1.000         TR
       18         2630000.         30                    1.000         TR
       19         2630000.         30                    1.000         TR
       20         2630000.         30                    1.000         TR
       21         2630000.         30                    1.000         TR
       22         2630000.         30                    1.000         TR
       23         2630000.         30                    1.000         TR
       24         2630000.         30                    1.000         TR
       25         2630000.         30                    1.000         TR
       26         2630000.         30                    1.000         TR
       27         2630000.         30                    1.000         TR
       28         2630000.         30                    1.000         TR
       29         2630000.         30                    1.000         TR
       30         2630000.         30                    1.000         TR
       31         2630000.         30                    1.000         TR
       32         2630000.         30                    1.000         TR
       33         2630000.         30                    1.000         TR
       34         2630000.         30                    1.000         TR
       35         2630000.         30                    1.000         TR
       36         2630000.         30                    1.000         TR
       37         2630000.         30                    1.000         TR
       38         2630000.         30                    1.000         TR
       39         2630000.         30                    1.000         TR
       40         2630000.         30                    1.000         TR
       41         2630000.         30                    1.000         TR
       42         2630000.         30                    1.000         TR
       43         2630000.         30                    1.000         TR
       44         2630000.         30                    1.000         TR
       45         2630000.         30                    1.000         TR
       46         2630000.         30                    1.000         TR
       47         2630000.         30                    1.000         TR
       48         2630000.         30                    1.000         TR
       49         2630000.         30                    1.000         TR

 COMBINED STEADY-STATE AND TRANSIENT SIMULATION



 
 #Test Simulation 2-- Example problem using the UZF1 Package                     
 #Modified from example Problem 1 of SFR1 documentation report                   
 THE FREE FORMAT OPTION HAS BEEN SELECTED



                     BOUNDARY ARRAY FOR LAYER   1
 READING ON UNIT   75 WITH FORMAT: (20I4)              

                1           2           3           4           5           6           7           8           9          10
 ............................................................................................................................
   1            1           1           0           0           0           0           0           0           0           0
   2            1           1           1           0           0           1           1           1           0           0
   3            0           1           1           1           1           1           1           1           0           0
   4            1           1           1           1           1           1           1           1           1           0
   5            1           1           1           1           1           1           1           1           1           1
   6            1           1           1           1           1           1           1           1           1           1
   7            1           1           1           1           1           1           1           1           1           0
   8            0           1           1           1           1           1           1           1           1           0
   9            0           1           1           1           1           1           1           1           1           0
  10            0           1           1           1           1           1           1           1           1           1
  11            0           1           1           1           1           1           1           1           1           0
  12            1           1           1           1           1           1           1           1           1           0
  13            1           1           1           1           1           1           1           1           1           0
  14            0           1           1           1           1           1           1           1           1           0
  15            0           0           1           1           1           1           0           0           0           0

 AQUIFER HEAD WILL BE SET TO   6999.0     AT ALL NO-FLOW NODES (IBOUND=0).



                       INITIAL HEAD FOR LAYER   1
 READING ON UNIT   75 WITH FORMAT: (10F8.0)            

            1           2           3           4           5           6           7           8           9          10
 ........................................................................................................................
   1    1093.       1089.       6999.       6999.       6999.       6999.       6999.       6999.       6999.       6999.    
   2    1090.       1087.       1081.       6999.       6999.       1072.       1071.       1071.       6999.       6999.    
   3    6999.       1079.       1078.       1074.       1072.       1071.       1069.       1068.       6999.       6999.    
   4    1069.       1071.       1070.       1067.       1065.       1064.       1064.       1066.       1066.       6999.    
   5    1065.       1064.       1063.       1062.       1061.       1061.       1060.       1062.       1066.       1068.    
   6    1060.       1058.       1057.       1056.       1056.       1057.       1057.       1059.       1062.       1066.    
   7    1056.       1053.       1052.       1051.       1051.       1052.       1053.       1055.       1056.       6999.    
   8    6999.       1046.       1046.       1046.       1046.       1046.       1048.       1050.       1050.       6999.    
   9    6999.       1039.       1039.       1039.       1040.       1041.       1042.       1043.       1044.       6999.    
  10    6999.       1031.       1032.       1033.       1034.       1035.       1037.       1038.       1039.       1042.    
  11    6999.       1021.       1023.       1027.       1029.       1030.       1032.       1034.       1036.       6999.    
  12    1001.       1009.       1015.       1020.       1023.       1026.       1029.       1030.       1034.       6999.    
  13    994.5      1000.0       1007.       1013.       1019.       1024.       1029.       1034.       1036.       6999.    
  14    6999.       1004.       1009.       1014.       1019.       1024.       1029.       1035.       1039.       6999.    
  15    6999.       6999.       1012.       1015.       1019.       1022.       6999.       6999.       6999.       6999.    

 OUTPUT CONTROL IS SPECIFIED ONLY AT TIME STEPS FOR WHICH OUTPUT IS DESIRED
 HEADS WILL BE SAVED WITH FORMAT: (10F10.3)           
 SAVED HEADS WILL BE LABELED
 COMPACT CELL-BY-CELL BUDGET FILES WILL BE WRITTEN
 HEAD PRINT FORMAT CODE IS   4    DRAWDOWN PRINT FORMAT CODE IS   0
 HEADS WILL BE SAVED ON UNIT   62    DRAWDOWNS WILL BE SAVED ON UNIT    0
 # NWT Input File
 # Test Problem 3 for MODFLOW-NWT
 #HEADTOL  FLUXTOL MAXITEROUT THICKFACT LINMETH IPRNWT IBOTAV OPTIONS DBDREDUCE DBDINCREASE DBDGAMMA MOMFACT BACKFLAG MAXBACKITER BACKTOL BACKREDUCE

 NWT1 -- Newton Solver, VERSION 1.1.4, 4/01/2018
         INPUT READ FROM UNIT 13

 SPECIFIED OPTION:
 SOLVER INPUT VALUES ARE SPECIFIED BY USER
 ***XMD linear solver will be used***
 
   CONVERGENCE CRITERION OF   0.100000E-03 FOR HEAD SOLUTION
   AND A TOLERANCE OF   0.100000E+03 FOR FLOW SOLUTION AND 
   A MAXIMUM OF   500 OUTER ITERATIONS. 


   D-B-D REDUCTION FACTOR OF    0.970000E+00 AND 
   A D-B-D INCREASE FACTOR OF    0.100000E-04 AND 
   A D-B-D RELAXATION OF    0.000000E+00 AND 
   A MOMENTUM FACTOR OF    0.100000E+00 .


 ***BACKTRACKING IS INACTIVE***
 XMD -- LINEAR SOLUTION BY XMD PACKAGE VERSION 1.30
     BY MOTOMU IBARAKI, OHIO STATE UNIVERSITY, COLOMBUS, OH
                 INPUT READ FROM UNIT 13
 ACCELERATION METHOD                    (IACL) =         1
 NODE ORDERING FLAG                   (NORDER) =         0
 LEVEL OF FILL                         (LEVEL) =         7
 MAXIMUM NUMBER OF ORTHOGONALIZATIONS  (NORTH) =         7
 INDEX FOR USING REDUCED SYSTEM      (IREDSYS) =         1
 RESID. REDUCTION CONVERGE CRITERION  (RRCTOL) =  0.000000E+00
 INDEX FOR USING DROP TOLERANCE     (IDROPTOL) =         1
 DROP TOLERANCE VALUE                  (EPSRN) =  0.500000E-02
 CONVERGENCE CRITERIA OF           (HCLOSEXMD) =  0.100000E-03
 MAX. NUMBER OF LINEAR ITERATIONS  (MXITERXMD) =        50


 UPW1 -- UPSTREAM WEIGHTING FLOW PACKAGE, VERSION 1.1.4, 4/01/2018
         INPUT READ FROM UNIT  7

 #Layer-Property Flow Package input for test simulation 2
 CELL-BY-CELL FLOWS WILL BE SAVED ON UNIT  102
 No named parameters

   LAYER FLAGS:
 LAYER       LAYTYP          LAYAVG    CHANI           LAYVKA           LAYWET
 ---------------------------------------------------------------------------
    1             1             0     1.000E+00             0             0

   INTERPRETATION OF LAYER FLAGS:
                        INTERBLOCK     HORIZONTAL    DATA IN
         LAYER TYPE   TRANSMISSIVITY   ANISOTROPY   ARRAY VKA   WETTABILITY
 LAYER   (LAYTYP)        (LAYAVG)      (CHANI)     (LAYVKA)       (LAYWET)
 ---------------------------------------------------------------------------
    1   CONVERTIBLE      HARMONIC     1.000E+00    VERTICAL K  NON-WETTABLE



              HYD. COND. ALONG ROWS FOR LAYER   1
 READING ON UNIT    7 WITH FORMAT: (10F5.0)            

            1           2           3           4           5           6           7           8           9          10
 ........................................................................................................................
   1   2.0000E-03  2.0000E-03   0.000       0.000       0.000       0.000       0.000       0.000       0.000       0.000    
   2   4.0000E-04  2.0000E-03  2.0000E-03   0.000       0.000      4.0000E-04  4.0000E-04  4.0000E-04   0.000       0.000    
   3    0.000      4.0000E-04  2.0000E-03  2.0000E-03  4.0000E-04  4.0000E-04  4.0000E-04  4.0000E-04   0.000       0.000    
   4   4.0000E-04  4.0000E-04  4.0000E-04  2.0000E-03  2.0000E-03  2.0000E-03  4.0000E-04  4.0000E-04  4.0000E-04   0.000    
   5   4.0000E-04  4.0000E-04  4.0000E-04  2.0000E-03  2.0000E-03  2.0000E-03  2.0000E-03  2.0000E-03  2.0000E-03  2.0000E-03
   6   4.0000E-04  4.0000E-04  4.0000E-04  2.0000E-03  2.0000E-03  2.0000E-03  2.0000E-03  2.0000E-03  4.0000E-04  4.0000E-04
   7   4.0000E-04  4.0000E-04  4.0000E-04  2.0000E-03  2.0000E-03  2.0000E-03  2.0000E-03  2.0000E-03  4.0000E-04   0.000    
   8    0.000      4.0000E-04  4.0000E-04  2.0000E-03  2.0000E-03  2.0000E-03  2.0000E-03  4.0000E-04  4.0000E-04   0.000    
   9    0.000      4.0000E-04  4.0000E-04  2.0000E-03  2.0000E-03  2.0000E-03  2.0000E-03  4.0000E-04  4.0000E-04   0.000    
  10    0.000      4.0000E-04  4.0000E-04  2.0000E-03  2.0000E-03  2.0000E-03  2.0000E-03  4.0000E-04  4.0000E-04  4.0000E-04
  11    0.000      4.0000E-04  4.0000E-04  2.0000E-03  2.0000E-03  2.0000E-03  2.0000E-03  4.0000E-04  4.0000E-04   0.000    
  12   4.0000E-04  4.0000E-04  2.0000E-03  2.0000E-03  2.0000E-03  2.0000E-03  2.0000E-03  4.0000E-04  4.0000E-04   0.000    
  13   2.0000E-03  2.0000E-03  2.0000E-03  2.0000E-03  2.0000E-03  2.0000E-03  2.0000E-03  2.0000E-03  2.0000E-03   0.000    
  14    0.000      4.0000E-04  4.0000E-04  4.0000E-04  4.0000E-04  4.0000E-04  4.0000E-04  4.0000E-04  2.0000E-03   0.000    
  15    0.000       0.000      4.0000E-04  4.0000E-04  4.0000E-04  4.0000E-04   0.000       0.000       0.000       0.000    

      VERTICAL HYD. COND. =  1.000000E-06 FOR LAYER   1

         SPECIFIC STORAGE =  1.000000E-06 FOR LAYER   1



                     SPECIFIC YIELD FOR LAYER   1
 READING ON UNIT    7 WITH FORMAT: (10F5.0)            

            1           2           3           4           5           6           7           8           9          10
 ........................................................................................................................
   1   0.2000      0.2000       0.000       0.000       0.000       0.000       0.000       0.000       0.000       0.000    
   2   0.1000      0.2000      0.2000       0.000       0.000      0.1000      0.1000      0.1000       0.000       0.000    
   3    0.000      0.1000      0.2000      0.2000      0.1000      0.1000      0.1000      0.1000       0.000       0.000    
   4   0.1000      0.1000      0.1000      0.2000      0.2000      0.2000      0.1000      0.1000      0.1000       0.000    
   5   0.1000      0.1000      0.1000      0.2000      0.2000      0.2000      0.2000      0.2000      0.2000      0.2000    
   6   0.1000      0.1000      0.1000      0.2000      0.2000      0.2000      0.2000      0.2000      0.1000      0.1000    
   7   0.1000      0.1000      0.1000      0.2000      0.2000      0.2000      0.2000      0.2000      0.1000       0.000    
   8    0.000      0.1000      0.1000      0.2000      0.2000      0.2000      0.2000      0.1000      0.1000       0.000    
   9    0.000      0.1000      0.1000      0.2000      0.2000      0.2000      0.2000      0.1000      0.1000       0.000    
  10    0.000      0.1000      0.1000      0.2000      0.2000      0.2000      0.2000      0.1000      0.1000      0.1000    
  11    0.000      0.1000      0.1000      0.2000      0.2000      0.2000      0.2000      0.1000      0.1000       0.000    
  12   0.1000      0.1000      0.2000      0.2000      0.2000      0.2000      0.2000      0.1000      0.1000       0.000    
  13   0.2000      0.2000      0.2000      0.2000      0.2000      0.2000      0.2000      0.2000      0.2000       0.000    
  14    0.000      0.1000      0.1000      0.1000      0.1000      0.1000      0.1000      0.1000      0.2000       0.000    
  15    0.000       0.000      0.1000      0.1000      0.1000      0.1000       0.000       0.000       0.000       0.000    

 GHB -- GENERAL-HEAD BOUNDARY PACKAGE, VERSION 7, 5/2/2005
         INPUT READ FROM UNIT   17
 No named parameters
 MAXIMUM OF      2 ACTIVE GHB CELLS AT ONE TIME
 CELL-BY-CELL FLOWS WILL BE PRINTED WHEN ICBCFL NOT 0


     0 GHB parameters

 SFR7 -- STREAMFLOW ROUTING PACKAGE, VERSION 1.0.5, 2012-04-05
         INPUT READ FROM UNIT  15
 #SFR2 Package input for Testing supplimental pumping and irrigation
 No named parameters

 PROCESSING SFR2 OPTIONS
 
          1 Specified inflow files will be read with a maximum of        759 row entries per file
 
Stream loss will be calculated as a factor of the streambed hydraulic conductivity. Multiplication factor is equal to     0.1000000015E+00

 END PROCESSING SFR2 OPTIONS
 


 NUMBER OF STREAM REACHES IS   36

 NUMBER OF STREAM SEGMENTS IS    8

 NUMBER OF STREAM PARAMETERS IS    0

 NUMBER OF STREAM SEGMENTS DEFINED USING PARAMETERS IS              0

 MAXIMUM ERROR FOR STREAM LEAKAGE RATES IS  1.00E-06

 CONSTANT FOR MANNINGS EQUATION IS  1.4860E+00



 STREAM OUTPUT WILL BE WRITTEN TO FILE ON UNIT   81


   STREAM NETWORK DESCRIPTION: 

   LAYER    ROW    COL   SEGMENT   REACH     LENGTH
                          NUMBER   NUMBER    IN CELL        
   --------------------------------------------------
      1      1      1       1        1    4.5000E+03
      1      2      2       1        2    7.0000E+03
      1      3      3       1        3    6.0000E+03
      1      3      4       1        4    5.5500E+03
      1      4      5       2        1    6.5000E+03
      1      5      6       2        2    5.0000E+03
      1      6      6       2        3    5.0000E+03
      1      7      6       2        4    5.0000E+03
      1      8      6       2        5    5.0000E+03
      1      3      5       3        1    5.0000E+03
      1      3      6       3        2    5.0000E+03
      1      3      7       3        3    4.5000E+03
      1      4      8       3        4    6.0000E+03
      1      5      8       3        5    5.0000E+03
      1      6      8       3        6    2.0000E+03
      1      5     10       4        1    2.5000E+03
      1      5      9       4        2    5.0000E+03
      1      6      8       4        3    3.5000E+03
      1      6      8       5        1    4.0000E+03
      1      7      7       5        2    5.0000E+03
      1      8      7       5        3    3.5000E+03
      1      8      6       5        4    2.5000E+03
      1      9      6       6        1    5.0000E+03
      1     10      7       6        2    5.0000E+03
      1     11      7       6        3    5.0000E+03
      1     12      7       6        4    5.0000E+03
      1     13      7       6        5    2.0000E+03
      1     14      9       7        1    5.0000E+03
      1     13      8       7        2    5.5000E+03
      1     13      7       7        3    5.0000E+03
      1     13      6       8        1    5.0000E+03
      1     13      5       8        2    5.0000E+03
      1     13      4       8        3    5.0000E+03
      1     13      3       8        4    5.0000E+03
      1     13      2       8        5    5.0000E+03
      1     13      1       8        6    3.0000E+03




 UZF1 -- UNSATURATED FLOW PACKAGE, VERSION 1.5, 09/10/2019
         INPUT READ FROM UNIT 19
 #UZF Package input for test simulation 2
 No named parameters

 PROCESSING UZF OPTIONS
 
 
 INITIAL WATER CONTENT (THTI) WILL BE 
READ FOR THE FIRST SS OR TR STRESS PERIOD
 
 
 RESIDUAL WATER CONTENT (THTR) WILL BE 
READ AND USED FOR THE FIRST TRANSIENT STRESS 
PERIOD
 
 
AIR ENTRY PRESSURE AND ROOT PRESSURE WILL BE 
SPECIFIED BY USER AND UZ ET WILL BE SIMULATED 
AS PRESSURE-HEAD DEPENDENT
 
 
INFILTRATION WILL BE REJECTED USING 
LAND SURFACE K
 
 
HYDRAULIC CONDUCTIVITY OF LAND SURFACE 
WILL BE READ
 

 END PROCESSING UZF OPTIONS



            AREAL EXTENT OF UZ FLOW
 READING ON UNIT   19 WITH FORMAT: (20I4)              

                1           2           3           4           5           6           7           8           9          10
 ............................................................................................................................
   1            1           1           0           0           0           0           0           0           0           0
   2            1           1           1           0           0           1           1           1           0           0
   3            0           1           1           1           1           1           1           1           0           0
   4            1           1           1           1           1           1           1           1           1           0
   5            1           1           1           1           1           1           1           1           1           1
   6            1           1           1           1           1           1           1           1           1           1
   7            1           1           1           1           1           1           1           1           1           0
   8            0           1           1           1           1           1           1           1           1           0
   9            0           1           1           1           1           1           1           1           1           0
  10            0           1           1           1           1           1           1           1           1           1
  11            0           1           1           1           1           1           1           1           1           0
  12            1           1           1           1           1           1           1           1           1           0
  13            1           1           1           1           1           1           1           1           1           0
  14            0           1           1           1           1           1           1           1           1           0
  15            0           0           1           1           1           1           0           0           0           0
 OPTION 1 -- RECHARGE IN UZF TO TOP LAYER ONLY 



            ROUTING OVERLAND RUNOFF
 READING ON UNIT   19 WITH FORMAT: (20I4)              

                1           2           3           4           5           6           7           8           9          10
 ............................................................................................................................
   1            1           1           0           0           0           0           0           0           0           0
   2            1           1           1           0           0           3           3           3           0           0
   3            0           1           1           1           3           3           3           3           0           0
   4            8           8           2           2           2           2           2           3           3           0
   5            8           8           8           8           2           2           2           3           4           4
   6            8           8           8           8           8           2           2           4           4           4
   7            8           8           8           8           8           2           5           5           5           0
   8            0           8           8           8           8           2           5           5           5           0
   9            0           8           8           8           8           6           6           6           6           0
  10            0           8           8           8           8           6           6           6           6           6
  11            0           8           8           8           8           8           6           6           7           0
  12            8           8           8           8           8           8           6           7           7           0
  13            8           8           8           8           8           8           7           7           7           0
  14            0           8           8           8           8           8           7           7           7           0
  15            0           0           8           8           8           8           0           0           0           0



               SATURATED VERTICAL K
 READING ON UNIT   19 WITH FORMAT: (10F4.0)            

            1           2           3           4           5           6           7           8           9          10
 ........................................................................................................................
   1   4.6000E-05  4.6000E-05   0.000       0.000       0.000       0.000       0.000       0.000       0.000       0.000    
   2   4.6000E-05  4.6000E-05  4.6000E-05   0.000       0.000      4.6000E-05  4.6000E-05  4.6000E-05   0.000       0.000    
   3    0.000      4.6000E-05  4.6000E-05  4.6000E-05  4.6000E-05  4.6000E-05  4.6000E-05  4.6000E-05   0.000       0.000    
   4   4.6000E-05  4.6000E-05  4.6000E-05  4.6000E-05  4.6000E-05  4.6000E-05  4.6000E-05  4.6000E-05  4.6000E-05   0.000    
   5   4.6000E-05  4.6000E-05  4.6000E-05  4.6000E-05  4.6000E-05  4.6000E-05  4.6000E-05  4.6000E-05  4.6000E-05  4.6000E-05
   6   4.6000E-05  4.6000E-05  4.6000E-05  4.6000E-05  4.6000E-05  4.6000E-05  4.6000E-05  4.6000E-05  4.6000E-05  4.6000E-05
   7   4.6000E-05  4.6000E-05  4.6000E-05  4.6000E-05  4.6000E-05  4.6000E-05  4.6000E-05  4.6000E-05  4.6000E-05   0.000    
   8    0.000      4.6000E-05  4.6000E-05  4.6000E-05  4.6000E-05  4.6000E-05  4.6000E-05  4.6000E-05  4.6000E-05   0.000    
   9    0.000      4.6000E-05  4.6000E-05  4.6000E-05  4.6000E-05  4.6000E-05  4.6000E-05  4.6000E-05  4.6000E-05   0.000    
  10    0.000      4.6000E-05  4.6000E-05  4.6000E-05  4.6000E-05  4.6000E-05  4.6000E-05  4.6000E-05  4.6000E-05  4.6000E-05
  11    0.000      4.6000E-05  4.6000E-05  4.6000E-05  4.6000E-05  4.6000E-05  4.6000E-05  4.6000E-05  4.6000E-05   0.000    
  12   4.6000E-05  4.6000E-05  4.6000E-05  4.6000E-05  4.6000E-05  4.6000E-05  4.6000E-05  4.6000E-05  4.6000E-05   0.000    
  13   4.6000E-05  4.6000E-05  4.6000E-05  4.6000E-05  4.6000E-05  4.6000E-05  4.6000E-05  4.6000E-05  4.6000E-05   0.000    
  14    0.000      4.6000E-05  4.6000E-05  4.6000E-05  4.6000E-05  4.6000E-05  4.6000E-05  4.6000E-05  4.6000E-05   0.000    
  15    0.000       0.000      4.6000E-05  4.6000E-05  4.6000E-05  4.6000E-05   0.000       0.000       0.000       0.000    



            LAND SURFACE VERTICAL K
 READING ON UNIT   19 WITH FORMAT: (10F4.0)            

            1           2           3           4           5           6           7           8           9          10
 ........................................................................................................................
   1   1.0000E-05  1.0000E-05   0.000       0.000       0.000       0.000       0.000       0.000       0.000       0.000    
   2   1.0000E-05  1.0000E-05  1.0000E-05   0.000       0.000      1.0000E-05  1.0000E-05  1.0000E-05   0.000       0.000    
   3    0.000      1.0000E-05  1.0000E-05  1.0000E-05  1.0000E-05  1.0000E-05  1.0000E-05  1.0000E-05   0.000       0.000    
   4   1.0000E-05  1.0000E-05  1.0000E-05  1.0000E-05  1.0000E-05  1.0000E-05  1.0000E-05  1.0000E-05  1.0000E-05   0.000    
   5   1.0000E-05  1.0000E-05  1.0000E-05  1.0000E-05  1.0000E-05  1.0000E-05  1.0000E-05  1.0000E-05  1.0000E-05  1.0000E-05
   6   1.0000E-05  1.0000E-05  1.0000E-05  1.0000E-05  1.0000E-05  1.0000E-05  1.0000E-05  1.0000E-05  1.0000E-05  1.0000E-05
   7   1.0000E-05  1.0000E-05  1.0000E-05  1.0000E-05  1.0000E-05  1.0000E-05  1.0000E-05  1.0000E-05  1.0000E-05   0.000    
   8    0.000      1.0000E-05  1.0000E-05  1.0000E-05  1.0000E-05  1.0000E-05  1.0000E-05  1.0000E-05  1.0000E-05   0.000    
   9    0.000      1.0000E-05  1.0000E-05  1.0000E-05  1.0000E-05  1.0000E-05  1.0000E-05  1.0000E-05  1.0000E-05   0.000    
  10    0.000      1.0000E-05  1.0000E-05  1.0000E-05  1.0000E-05  1.0000E-05  1.0000E-05  1.0000E-05  1.0000E-05  1.0000E-05
  11    0.000      1.0000E-05  1.0000E-05  1.0000E-05  1.0000E-05  1.0000E-05  1.0000E-05  1.0000E-05  1.0000E-05   0.000    
  12   1.0000E-05  1.0000E-05  1.0000E-05  1.0000E-05  1.0000E-05  1.0000E-05  1.0000E-05  1.0000E-05  1.0000E-05   0.000    
  13   1.0000E-05  1.0000E-05  1.0000E-05  1.0000E-05  1.0000E-05  1.0000E-05  1.0000E-05  1.0000E-05  1.0000E-05   0.000    
  14    0.000      1.0000E-05  1.0000E-05  1.0000E-05  1.0000E-05  1.0000E-05  1.0000E-05  1.0000E-05  1.0000E-05   0.000    
  15    0.000       0.000      1.0000E-05  1.0000E-05  1.0000E-05  1.0000E-05   0.000       0.000       0.000       0.000    

     BROOKS-COREY EPSILON =   7.50000    

  SATURATED WATER CONTENT =  0.380000    

   RESIDUAL WATER CONTENT =  0.200000    

    INITIAL WATER CONTENT =  0.200000    

UNSATURATED FLOW RESULTS WILL BE PRINTED TO SEPARATE FILES FOR SELECTED MODEL CELLS, AND TIME STEPS AS DEFINED BY OUTPUT CONTROL PACKAGE 

SELECTED MODEL CELLS ARE: 
 ROW NUMBER  COLUMN NUMBER  FORTRAN UNIT NUMBER  OUTPUT OPTION


       6             4                 65                 1
       6             5                 66                 2
       8             4                 67                 3
       0             0                 68                 4



   8 GAGING STATIONS WERE SPECIFIED.
     (Lakes are identified by a negative value of the Lake Number)
     RECORDS WILL BE WRITTEN TO SEPARATE OUTPUT FILES REPRESENTED BY FOLLOWING UNIT NUMBERS:

 Stream Gages:
  GAGE #   SEGMENT   REACH   UNIT   OUTTYPE
       1       1       4      83       1
       2       2       3      84       1
       3       3       5      85       1
       4       4       3      86       1
       5       5       4      87       4
       6       6       5      88       4
       7       7       3      89       4
       8       8       6      90       4





 AG -- AG PACKAGE FOR NWT VERSION 1.2.0,  3/03/2020 INPUT READ FROM UNIT   57
 # AG options

 PROCESSING AG OPTIONS
 
 AGRICULTURAL DEMANDS WILL BE CALCULATED USING ET DEFICIT
 
 
 OPTION TO APPLY PUMPED WATER AS IRRIGATION IS ACTIVE. PUMPED IRRIGATION WATER WILL BE APPLIED TO          6 CELLS/RHUS.
 
 
 THE MAXIMUM NUMBER OF WELLS FOR SUPPLEMENTING DIVERSIONS OR APPLYING IRRIGATION IS          6 WELLS.
 
 
  UNFORMATTED CELL BY CELL RATES FOR SUP AND IRR WELLS WILL BE SAVED TO FILE UNIT NUMBER         -2
 
 
  UNFORMATTED CELL BY CELL RATES FOR SUP AND IRR WELLS WILL BE SAVED TO FILE UNIT NUMBER         -2
 
 
  GROUND WATER IRRIGATION, POTENTIAL AND ACTUAL ET WILL BE SAVED TO TIMES SERIES OUTPUT FILES.
 
 
  GROUND WATER IRRIGATION, POTENTIAL AND ACTUAL ET WILL BE SAVED TO TIMES SERIES OUTPUT FILES.
 

 END PROCESSING AG OPTIONS
 # AG time series

 PROCESSING TIME SERIES

 FINISHED READING TIME SERIES
 A total number of          0 AG output time series files were activated for SURFACE WATER 
 A total number of          2 AG output time series files were activated for GROUNDWATER 
 A total number of          0 AG output time series files were activated for SURFACE WATER ET
 A total number of          2 AG output time series files were activated for GROUNDWATER ET
 A total number of          0 AG output time series files were activated for POND ET
 A total number of          0 AG output time series files were activated for POND IRRIGATION
1
                            STRESS PERIOD NO.    1, LENGTH =   86400.00    
                            -----------------------------------------------

                              NUMBER OF TIME STEPS =     1

                               MULTIPLIER FOR DELT =     1.000

                            INITIAL TIME STEP SIZE =   86400.00    

 BOUND. NO. LAYER   ROW   COL     STAGE      CONDUCTANCE         
 ----------------------------------------------------------------
      1      1     13      1       988.0          0.3800E-01
      2      1     14      9       1045.          0.3800E-01

      2 GHB CELLS



 CLASSIFICATION & COUNT OF STREAM SEGMENTS BASED ON SOURCE OF INFLOW:

                HEADWATER     DIVERSION     RECEIVES TRIBUTARY FLOW
                ---------     ---------     -----------------------
                     3              1               4



                    INPUT DATA FOR EACH STREAM SEGMENT
 ---------------------------------------------------------------------------------------------

 SEGMENT    SEG.     INFLOW   OVERLAND   STREAM    STREAM   ICALC  OUTFLOW  DIVERSION PRIORITY
    NO.    LENGTH     RATE     RUNOFF      ET       PPT.    METH.  TO SEG.  FROM SEG.    NO.

      1  2.305E+04 2.500E+01 0.000E+00 0.000E+00 0.000E+00    4        2        0        0
      2  2.650E+04 0.000E+00 0.000E+00 0.000E+00 0.000E+00    1        6        0        0
      3  2.750E+04 2.000E+00 0.000E+00 0.000E+00 0.000E+00    0        5        1        0
      4  1.100E+04 1.000E+01 0.000E+00 0.000E+00 0.000E+00    1        5        0        0
      5  1.500E+04 0.000E+00 0.000E+00 0.000E+00 0.000E+00    3        6        0        0
      6  2.200E+04 0.000E+00 0.000E+00 0.000E+00 0.000E+00    1        8        0        0
      7  1.550E+04 1.500E+02 0.000E+00 0.000E+00 0.000E+00    2        8        0        0
      8  2.800E+04 0.000E+00 0.000E+00 0.000E+00 0.000E+00    2        0        0        0


         STREAMBED PROPERTIES AND STREAM DIMENSIONS

 SEGMENT     BED HYD. COND.      BED THICKNESS     ELEV.-TOP OF BED     WIDTH OF STREAM     DEPTH OF STREAM    STREAM ROUGHNESS
    No.     UPPER     LOWER     UPPER     LOWER     UPPER     LOWER     UPPER     LOWER     UPPER     LOWER   CHANNEL      BANK

     1  3.000E-05 3.000E-05 3.000E+00 3.000E+00 1.095E+03 1.075E+03
     2  3.000E-05 3.000E-05 3.000E+00 3.000E+00 1.075E+03 1.050E+03 1.200E+01 1.200E+01                     3.000E-02
     3  3.000E-05 3.000E-05 2.000E+00 2.000E+00 1.075E+03 1.060E+03 1.000E+01 6.000E+00 2.000E+00 1.000E+00
     4  3.000E-05 3.000E-05 3.000E+00 3.000E+00 1.080E+03 1.060E+03 1.000E+01 1.000E+01                     3.000E-02
     5  3.000E-05 3.000E-05 3.000E+00 3.000E+00 1.060E+03 1.045E+03
     6  3.000E-05 3.000E-05 3.000E+00 3.000E+00 1.045E+03 1.025E+03 1.200E+01 1.200E+01                     3.000E-02
     7  6.000E-05 6.000E-05 3.000E+00 3.000E+00 1.040E+03 1.025E+03                                         2.500E-02 4.500E-02
     8  6.000E-05 6.000E-05 3.000E+00 3.000E+00 1.025E+03 9.900E+02                                         2.500E-02 4.500E-02

  EIGHT POINT CROSS-SECTION DATA FOR SEGMENTS WITH ICALC = 2
    X VALUES X VALUES START FROM LEFT SIDE LOOKING DOWNSTREAM

     SEGMENT NO.        X1        X2        X3        X4        X5        X6        X7        X8
            7      0.000E+00 1.000E+01 8.000E+01 1.000E+02 1.500E+02 1.700E+02 2.400E+02 2.500E+02
            8      0.000E+00 1.000E+01 8.000E+01 1.000E+02 1.500E+02 1.700E+02 2.400E+02 2.500E+02

    Z VALUES ARE RELATIVE TO STREAMBED ELEVATION

     SEGMENT NO.          Z1        Z2        Z3        Z4        Z5        Z6        Z7        Z8
            7      2.000E+01 1.300E+01 1.000E+01 2.000E+00 0.000E+00 1.000E+01 1.300E+01 2.000E+01
            8      2.500E+01 1.700E+01 1.300E+01 4.000E+00 0.000E+00 1.000E+01 1.600E+01 2.000E+01

 STREAMFLOW RELATION WITH DEPTH IS BASED ON EQUATION Q = CDPTH*(DEPTH)**FDPTH
 STREAMFLOW RELATION WITH WIDTH IS BASED ON EQUATION Q = AWDTH*(WIDTH)**BWDTH

 SEGMENT NO.      CDPTH     FDPTH    AWDTH     BWDTH

          5 3.000E-01 3.500E-01 3.800E+00 6.000E-01

 STREAMFLOW RELATION WITH DEPTH AND WIDTH IS BASED ON TABULATED VALUES

  SEGMENT NO.   STREAMFLOW       DEPTH       WIDTH

          1     5.0000E-01   2.5000E-01   3.0000E+00
          1     1.0000E+00   4.0000E-01   3.5000E+00
          1     2.0000E+00   5.5000E-01   4.2000E+00
          1     4.0000E+00   7.0000E-01   5.3000E+00
          1     7.0000E+00   8.0000E-01   7.0000E+00
          1     1.0000E+01   9.0000E-01   8.5000E+00
          1     2.0000E+01   1.1000E+00   1.2000E+01
          1     3.0000E+01   1.2500E+00   1.4000E+01
          1     5.0000E+01   1.4000E+00   1.7000E+01
          1     7.5000E+01   1.7000E+00   2.0000E+01
          1     1.0000E+02   1.8000E+00   2.2000E+01



TABULAR INFLOWS WERE READ FOR SEGMENT      1
FROM FILE UNIT NUMBER     55

          TIMES                    INFLOWS
         0.0000000000E+00     0.5000000000E+01
         0.8640000000E+05     0.2200000000E+02
         0.2760000000E+07     0.4200000000E+02
         0.5270000000E+07     0.7700000000E+02
         0.7950000000E+07     0.2800000000E+02
         0.1050000000E+08     0.9900000000E+02
         0.1320000000E+08     0.8300000000E+02
         0.1580000000E+08     0.7500000000E+02
         0.1850000000E+08     0.6100000000E+02
         0.2120000000E+08     0.4700000000E+02
         0.2380000000E+08     0.3500000000E+02
         0.2640000000E+08     0.2600000000E+02
         0.2900000000E+08     0.2300000000E+02
         0.3170000000E+08     0.1900000000E+02
         0.3440000000E+08     0.2100000000E+02
         0.3680000000E+08     0.9800000000E+02
         0.3950000000E+08     0.7500000000E+02
         0.4210000000E+08     0.6300000000E+02
         0.4480000000E+08     0.5800000000E+02
         0.4730000000E+08     0.5400000000E+02
         0.5000000000E+08     0.3700000000E+02
         0.5270000000E+08     0.2500000000E+02
         0.5530000000E+08     0.2200000000E+02
         0.5800000000E+08     0.2100000000E+02
         0.6060000000E+08     0.2000000000E+02
         0.6320000000E+08     0.1900000000E+02



            AREAL INFILTRATION RATE
 READING ON UNIT   19 WITH FORMAT: (10F4.0)            

            1           2           3           4           5           6           7           8           9          10
 ........................................................................................................................
   1   1.0000E-10  2.0000E-10   0.000       0.000       0.000       0.000       0.000       0.000       0.000       0.000    
   2   2.0000E-10  1.0000E-10  2.0000E-10   0.000       0.000      8.0000E-10  8.0000E-10  5.0000E-10   0.000       0.000    
   3    0.000      5.0000E-10  1.0000E-10  1.0000E-10  8.0000E-10  8.0000E-10  5.0000E-10  5.0000E-10   0.000       0.000    
   4   8.0000E-10  5.0000E-10  1.0000E-10  1.0000E-10  1.0000E-10  1.0000E-10  1.0000E-10  1.0000E-10  2.0000E-10   0.000    
   5   8.0000E-10  5.0000E-10  1.0000E-10  1.0000E-10  1.0000E-10  1.0000E-10  1.0000E-10  1.0000E-10  1.0000E-10  1.0000E-10
   6   8.0000E-10  5.0000E-10  5.0000E-10  2.0000E-10  2.0000E-10  1.0000E-10  1.0000E-10  1.0000E-10  1.0000E-10  5.0000E-10
   7   8.0000E-10  5.0000E-10  5.0000E-10  2.0000E-10  2.0000E-10  1.0000E-10  1.0000E-10  2.0000E-10  2.0000E-10   0.000    
   8    0.000      5.0000E-10  5.0000E-10  2.0000E-10  2.0000E-10  1.0000E-10  1.0000E-10  2.0000E-10  5.0000E-10   0.000    
   9    0.000      5.0000E-10  5.0000E-10  2.0000E-10  2.0000E-10  1.0000E-10  1.0000E-10  2.0000E-10  5.0000E-10   0.000    
  10    0.000      5.0000E-10  5.0000E-10  2.0000E-10  2.0000E-10  1.0000E-10  1.0000E-10  2.0000E-10  5.0000E-10  8.0000E-10
  11    0.000      1.0000E-10  1.0000E-10  1.0000E-10  1.0000E-10  1.0000E-10  1.0000E-10  2.0000E-10  5.0000E-10   0.000    
  12   1.0000E-10  1.0000E-10  1.0000E-10  1.0000E-10  1.0000E-10  1.0000E-10  1.0000E-10  1.0000E-10  2.0000E-10   0.000    
  13   1.0000E-10  1.0000E-10  2.0000E-10  2.0000E-10  2.0000E-10  2.0000E-10  2.0000E-10  1.0000E-10  1.0000E-10   0.000    
  14    0.000      2.0000E-10  5.0000E-10  5.0000E-10  5.0000E-10  5.0000E-10  5.0000E-10  2.0000E-10  1.0000E-10   0.000    
  15    0.000       0.000      8.0000E-10  8.0000E-10  8.0000E-10  8.0000E-10   0.000       0.000       0.000       0.000    

                  ET RATE =  1.000000E-08

      ET EXTINCTION DEPTH =  0.500000    

 EXTINCTION WATER CONTENT =  0.200000    

EXTINCTION WATER CONTENT FOR CELL AT ROW     1, COLUMN     1 IS LESS THAN RESIDUAL WATER CONTENT-- SETTING EXTINCTION WATER CONTENT EQUAL TO RESIDUAL WATER CONTENT

EXTINCTION WATER CONTENT FOR CELL AT ROW     1, COLUMN     2 IS LESS THAN RESIDUAL WATER CONTENT-- SETTING EXTINCTION WATER CONTENT EQUAL TO RESIDUAL WATER CONTENT

EXTINCTION WATER CONTENT FOR CELL AT ROW     2, COLUMN     1 IS LESS THAN RESIDUAL WATER CONTENT-- SETTING EXTINCTION WATER CONTENT EQUAL TO RESIDUAL WATER CONTENT

EXTINCTION WATER CONTENT FOR CELL AT ROW     2, COLUMN     2 IS LESS THAN RESIDUAL WATER CONTENT-- SETTING EXTINCTION WATER CONTENT EQUAL TO RESIDUAL WATER CONTENT

EXTINCTION WATER CONTENT FOR CELL AT ROW     2, COLUMN     3 IS LESS THAN RESIDUAL WATER CONTENT-- SETTING EXTINCTION WATER CONTENT EQUAL TO RESIDUAL WATER CONTENT

EXTINCTION WATER CONTENT FOR CELL AT ROW     2, COLUMN     6 IS LESS THAN RESIDUAL WATER CONTENT-- SETTING EXTINCTION WATER CONTENT EQUAL TO RESIDUAL WATER CONTENT

EXTINCTION WATER CONTENT FOR CELL AT ROW     2, COLUMN     7 IS LESS THAN RESIDUAL WATER CONTENT-- SETTING EXTINCTION WATER CONTENT EQUAL TO RESIDUAL WATER CONTENT

EXTINCTION WATER CONTENT FOR CELL AT ROW     2, COLUMN     8 IS LESS THAN RESIDUAL WATER CONTENT-- SETTING EXTINCTION WATER CONTENT EQUAL TO RESIDUAL WATER CONTENT

EXTINCTION WATER CONTENT FOR CELL AT ROW     3, COLUMN     2 IS LESS THAN RESIDUAL WATER CONTENT-- SETTING EXTINCTION WATER CONTENT EQUAL TO RESIDUAL WATER CONTENT

EXTINCTION WATER CONTENT FOR CELL AT ROW     3, COLUMN     3 IS LESS THAN RESIDUAL WATER CONTENT-- SETTING EXTINCTION WATER CONTENT EQUAL TO RESIDUAL WATER CONTENT

EXTINCTION WATER CONTENT FOR CELL AT ROW     3, COLUMN     4 IS LESS THAN RESIDUAL WATER CONTENT-- SETTING EXTINCTION WATER CONTENT EQUAL TO RESIDUAL WATER CONTENT

EXTINCTION WATER CONTENT FOR CELL AT ROW     3, COLUMN     5 IS LESS THAN RESIDUAL WATER CONTENT-- SETTING EXTINCTION WATER CONTENT EQUAL TO RESIDUAL WATER CONTENT

EXTINCTION WATER CONTENT FOR CELL AT ROW     3, COLUMN     6 IS LESS THAN RESIDUAL WATER CONTENT-- SETTING EXTINCTION WATER CONTENT EQUAL TO RESIDUAL WATER CONTENT

EXTINCTION WATER CONTENT FOR CELL AT ROW     3, COLUMN     7 IS LESS THAN RESIDUAL WATER CONTENT-- SETTING EXTINCTION WATER CONTENT EQUAL TO RESIDUAL WATER CONTENT

EXTINCTION WATER CONTENT FOR CELL AT ROW     3, COLUMN     8 IS LESS THAN RESIDUAL WATER CONTENT-- SETTING EXTINCTION WATER CONTENT EQUAL TO RESIDUAL WATER CONTENT

EXTINCTION WATER CONTENT FOR CELL AT ROW     4, COLUMN     1 IS LESS THAN RESIDUAL WATER CONTENT-- SETTING EXTINCTION WATER CONTENT EQUAL TO RESIDUAL WATER CONTENT

EXTINCTION WATER CONTENT FOR CELL AT ROW     4, COLUMN     2 IS LESS THAN RESIDUAL WATER CONTENT-- SETTING EXTINCTION WATER CONTENT EQUAL TO RESIDUAL WATER CONTENT

EXTINCTION WATER CONTENT FOR CELL AT ROW     4, COLUMN     3 IS LESS THAN RESIDUAL WATER CONTENT-- SETTING EXTINCTION WATER CONTENT EQUAL TO RESIDUAL WATER CONTENT

EXTINCTION WATER CONTENT FOR CELL AT ROW     4, COLUMN     4 IS LESS THAN RESIDUAL WATER CONTENT-- SETTING EXTINCTION WATER CONTENT EQUAL TO RESIDUAL WATER CONTENT

EXTINCTION WATER CONTENT FOR CELL AT ROW     4, COLUMN     5 IS LESS THAN RESIDUAL WATER CONTENT-- SETTING EXTINCTION WATER CONTENT EQUAL TO RESIDUAL WATER CONTENT

EXTINCTION WATER CONTENT FOR CELL AT ROW     4, COLUMN     6 IS LESS THAN RESIDUAL WATER CONTENT-- SETTING EXTINCTION WATER CONTENT EQUAL TO RESIDUAL WATER CONTENT

EXTINCTION WATER CONTENT FOR CELL AT ROW     4, COLUMN     7 IS LESS THAN RESIDUAL WATER CONTENT-- SETTING EXTINCTION WATER CONTENT EQUAL TO RESIDUAL WATER CONTENT

EXTINCTION WATER CONTENT FOR CELL AT ROW     4, COLUMN     8 IS LESS THAN RESIDUAL WATER CONTENT-- SETTING EXTINCTION WATER CONTENT EQUAL TO RESIDUAL WATER CONTENT

EXTINCTION WATER CONTENT FOR CELL AT ROW     4, COLUMN     9 IS LESS THAN RESIDUAL WATER CONTENT-- SETTING EXTINCTION WATER CONTENT EQUAL TO RESIDUAL WATER CONTENT

EXTINCTION WATER CONTENT FOR CELL AT ROW     5, COLUMN     1 IS LESS THAN RESIDUAL WATER CONTENT-- SETTING EXTINCTION WATER CONTENT EQUAL TO RESIDUAL WATER CONTENT

EXTINCTION WATER CONTENT FOR CELL AT ROW     5, COLUMN     2 IS LESS THAN RESIDUAL WATER CONTENT-- SETTING EXTINCTION WATER CONTENT EQUAL TO RESIDUAL WATER CONTENT

EXTINCTION WATER CONTENT FOR CELL AT ROW     5, COLUMN     3 IS LESS THAN RESIDUAL WATER CONTENT-- SETTING EXTINCTION WATER CONTENT EQUAL TO RESIDUAL WATER CONTENT

EXTINCTION WATER CONTENT FOR CELL AT ROW     5, COLUMN     4 IS LESS THAN RESIDUAL WATER CONTENT-- SETTING EXTINCTION WATER CONTENT EQUAL TO RESIDUAL WATER CONTENT

EXTINCTION WATER CONTENT FOR CELL AT ROW     5, COLUMN     5 IS LESS THAN RESIDUAL WATER CONTENT-- SETTING EXTINCTION WATER CONTENT EQUAL TO RESIDUAL WATER CONTENT

EXTINCTION WATER CONTENT FOR CELL AT ROW     5, COLUMN     6 IS LESS THAN RESIDUAL WATER CONTENT-- SETTING EXTINCTION WATER CONTENT EQUAL TO RESIDUAL WATER CONTENT

EXTINCTION WATER CONTENT FOR CELL AT ROW     5, COLUMN     7 IS LESS THAN RESIDUAL WATER CONTENT-- SETTING EXTINCTION WATER CONTENT EQUAL TO RESIDUAL WATER CONTENT

EXTINCTION WATER CONTENT FOR CELL AT ROW     5, COLUMN     8 IS LESS THAN RESIDUAL WATER CONTENT-- SETTING EXTINCTION WATER CONTENT EQUAL TO RESIDUAL WATER CONTENT

EXTINCTION WATER CONTENT FOR CELL AT ROW     5, COLUMN     9 IS LESS THAN RESIDUAL WATER CONTENT-- SETTING EXTINCTION WATER CONTENT EQUAL TO RESIDUAL WATER CONTENT

EXTINCTION WATER CONTENT FOR CELL AT ROW     5, COLUMN    10 IS LESS THAN RESIDUAL WATER CONTENT-- SETTING EXTINCTION WATER CONTENT EQUAL TO RESIDUAL WATER CONTENT

EXTINCTION WATER CONTENT FOR CELL AT ROW     6, COLUMN     1 IS LESS THAN RESIDUAL WATER CONTENT-- SETTING EXTINCTION WATER CONTENT EQUAL TO RESIDUAL WATER CONTENT

EXTINCTION WATER CONTENT FOR CELL AT ROW     6, COLUMN     2 IS LESS THAN RESIDUAL WATER CONTENT-- SETTING EXTINCTION WATER CONTENT EQUAL TO RESIDUAL WATER CONTENT

EXTINCTION WATER CONTENT FOR CELL AT ROW     6, COLUMN     3 IS LESS THAN RESIDUAL WATER CONTENT-- SETTING EXTINCTION WATER CONTENT EQUAL TO RESIDUAL WATER CONTENT

EXTINCTION WATER CONTENT FOR CELL AT ROW     6, COLUMN     4 IS LESS THAN RESIDUAL WATER CONTENT-- SETTING EXTINCTION WATER CONTENT EQUAL TO RESIDUAL WATER CONTENT

EXTINCTION WATER CONTENT FOR CELL AT ROW     6, COLUMN     5 IS LESS THAN RESIDUAL WATER CONTENT-- SETTING EXTINCTION WATER CONTENT EQUAL TO RESIDUAL WATER CONTENT

EXTINCTION WATER CONTENT FOR CELL AT ROW     6, COLUMN     6 IS LESS THAN RESIDUAL WATER CONTENT-- SETTING EXTINCTION WATER CONTENT EQUAL TO RESIDUAL WATER CONTENT

EXTINCTION WATER CONTENT FOR CELL AT ROW     6, COLUMN     7 IS LESS THAN RESIDUAL WATER CONTENT-- SETTING EXTINCTION WATER CONTENT EQUAL TO RESIDUAL WATER CONTENT

EXTINCTION WATER CONTENT FOR CELL AT ROW     6, COLUMN     8 IS LESS THAN RESIDUAL WATER CONTENT-- SETTING EXTINCTION WATER CONTENT EQUAL TO RESIDUAL WATER CONTENT

EXTINCTION WATER CONTENT FOR CELL AT ROW     6, COLUMN     9 IS LESS THAN RESIDUAL WATER CONTENT-- SETTING EXTINCTION WATER CONTENT EQUAL TO RESIDUAL WATER CONTENT

EXTINCTION WATER CONTENT FOR CELL AT ROW     6, COLUMN    10 IS LESS THAN RESIDUAL WATER CONTENT-- SETTING EXTINCTION WATER CONTENT EQUAL TO RESIDUAL WATER CONTENT

EXTINCTION WATER CONTENT FOR CELL AT ROW     7, COLUMN     1 IS LESS THAN RESIDUAL WATER CONTENT-- SETTING EXTINCTION WATER CONTENT EQUAL TO RESIDUAL WATER CONTENT

EXTINCTION WATER CONTENT FOR CELL AT ROW     7, COLUMN     2 IS LESS THAN RESIDUAL WATER CONTENT-- SETTING EXTINCTION WATER CONTENT EQUAL TO RESIDUAL WATER CONTENT

EXTINCTION WATER CONTENT FOR CELL AT ROW     7, COLUMN     3 IS LESS THAN RESIDUAL WATER CONTENT-- SETTING EXTINCTION WATER CONTENT EQUAL TO RESIDUAL WATER CONTENT

EXTINCTION WATER CONTENT FOR CELL AT ROW     7, COLUMN     4 IS LESS THAN RESIDUAL WATER CONTENT-- SETTING EXTINCTION WATER CONTENT EQUAL TO RESIDUAL WATER CONTENT

EXTINCTION WATER CONTENT FOR CELL AT ROW     7, COLUMN     5 IS LESS THAN RESIDUAL WATER CONTENT-- SETTING EXTINCTION WATER CONTENT EQUAL TO RESIDUAL WATER CONTENT

EXTINCTION WATER CONTENT FOR CELL AT ROW     7, COLUMN     6 IS LESS THAN RESIDUAL WATER CONTENT-- SETTING EXTINCTION WATER CONTENT EQUAL TO RESIDUAL WATER CONTENT

EXTINCTION WATER CONTENT FOR CELL AT ROW     7, COLUMN     7 IS LESS THAN RESIDUAL WATER CONTENT-- SETTING EXTINCTION WATER CONTENT EQUAL TO RESIDUAL WATER CONTENT

EXTINCTION WATER CONTENT FOR CELL AT ROW     7, COLUMN     8 IS LESS THAN RESIDUAL WATER CONTENT-- SETTING EXTINCTION WATER CONTENT EQUAL TO RESIDUAL WATER CONTENT

EXTINCTION WATER CONTENT FOR CELL AT ROW     7, COLUMN     9 IS LESS THAN RESIDUAL WATER CONTENT-- SETTING EXTINCTION WATER CONTENT EQUAL TO RESIDUAL WATER CONTENT

EXTINCTION WATER CONTENT FOR CELL AT ROW     8, COLUMN     2 IS LESS THAN RESIDUAL WATER CONTENT-- SETTING EXTINCTION WATER CONTENT EQUAL TO RESIDUAL WATER CONTENT

EXTINCTION WATER CONTENT FOR CELL AT ROW     8, COLUMN     3 IS LESS THAN RESIDUAL WATER CONTENT-- SETTING EXTINCTION WATER CONTENT EQUAL TO RESIDUAL WATER CONTENT

EXTINCTION WATER CONTENT FOR CELL AT ROW     8, COLUMN     4 IS LESS THAN RESIDUAL WATER CONTENT-- SETTING EXTINCTION WATER CONTENT EQUAL TO RESIDUAL WATER CONTENT

EXTINCTION WATER CONTENT FOR CELL AT ROW     8, COLUMN     5 IS LESS THAN RESIDUAL WATER CONTENT-- SETTING EXTINCTION WATER CONTENT EQUAL TO RESIDUAL WATER CONTENT

EXTINCTION WATER CONTENT FOR CELL AT ROW     8, COLUMN     6 IS LESS THAN RESIDUAL WATER CONTENT-- SETTING EXTINCTION WATER CONTENT EQUAL TO RESIDUAL WATER CONTENT

EXTINCTION WATER CONTENT FOR CELL AT ROW     8, COLUMN     7 IS LESS THAN RESIDUAL WATER CONTENT-- SETTING EXTINCTION WATER CONTENT EQUAL TO RESIDUAL WATER CONTENT

EXTINCTION WATER CONTENT FOR CELL AT ROW     8, COLUMN     8 IS LESS THAN RESIDUAL WATER CONTENT-- SETTING EXTINCTION WATER CONTENT EQUAL TO RESIDUAL WATER CONTENT

EXTINCTION WATER CONTENT FOR CELL AT ROW     8, COLUMN     9 IS LESS THAN RESIDUAL WATER CONTENT-- SETTING EXTINCTION WATER CONTENT EQUAL TO RESIDUAL WATER CONTENT

EXTINCTION WATER CONTENT FOR CELL AT ROW     9, COLUMN     2 IS LESS THAN RESIDUAL WATER CONTENT-- SETTING EXTINCTION WATER CONTENT EQUAL TO RESIDUAL WATER CONTENT

EXTINCTION WATER CONTENT FOR CELL AT ROW     9, COLUMN     3 IS LESS THAN RESIDUAL WATER CONTENT-- SETTING EXTINCTION WATER CONTENT EQUAL TO RESIDUAL WATER CONTENT

EXTINCTION WATER CONTENT FOR CELL AT ROW     9, COLUMN     4 IS LESS THAN RESIDUAL WATER CONTENT-- SETTING EXTINCTION WATER CONTENT EQUAL TO RESIDUAL WATER CONTENT

EXTINCTION WATER CONTENT FOR CELL AT ROW     9, COLUMN     5 IS LESS THAN RESIDUAL WATER CONTENT-- SETTING EXTINCTION WATER CONTENT EQUAL TO RESIDUAL WATER CONTENT

EXTINCTION WATER CONTENT FOR CELL AT ROW     9, COLUMN     6 IS LESS THAN RESIDUAL WATER CONTENT-- SETTING EXTINCTION WATER CONTENT EQUAL TO RESIDUAL WATER CONTENT

EXTINCTION WATER CONTENT FOR CELL AT ROW     9, COLUMN     7 IS LESS THAN RESIDUAL WATER CONTENT-- SETTING EXTINCTION WATER CONTENT EQUAL TO RESIDUAL WATER CONTENT

EXTINCTION WATER CONTENT FOR CELL AT ROW     9, COLUMN     8 IS LESS THAN RESIDUAL WATER CONTENT-- SETTING EXTINCTION WATER CONTENT EQUAL TO RESIDUAL WATER CONTENT

EXTINCTION WATER CONTENT FOR CELL AT ROW     9, COLUMN     9 IS LESS THAN RESIDUAL WATER CONTENT-- SETTING EXTINCTION WATER CONTENT EQUAL TO RESIDUAL WATER CONTENT

EXTINCTION WATER CONTENT FOR CELL AT ROW    10, COLUMN     2 IS LESS THAN RESIDUAL WATER CONTENT-- SETTING EXTINCTION WATER CONTENT EQUAL TO RESIDUAL WATER CONTENT

EXTINCTION WATER CONTENT FOR CELL AT ROW    10, COLUMN     3 IS LESS THAN RESIDUAL WATER CONTENT-- SETTING EXTINCTION WATER CONTENT EQUAL TO RESIDUAL WATER CONTENT

EXTINCTION WATER CONTENT FOR CELL AT ROW    10, COLUMN     4 IS LESS THAN RESIDUAL WATER CONTENT-- SETTING EXTINCTION WATER CONTENT EQUAL TO RESIDUAL WATER CONTENT

EXTINCTION WATER CONTENT FOR CELL AT ROW    10, COLUMN     5 IS LESS THAN RESIDUAL WATER CONTENT-- SETTING EXTINCTION WATER CONTENT EQUAL TO RESIDUAL WATER CONTENT

EXTINCTION WATER CONTENT FOR CELL AT ROW    10, COLUMN     6 IS LESS THAN RESIDUAL WATER CONTENT-- SETTING EXTINCTION WATER CONTENT EQUAL TO RESIDUAL WATER CONTENT

EXTINCTION WATER CONTENT FOR CELL AT ROW    10, COLUMN     7 IS LESS THAN RESIDUAL WATER CONTENT-- SETTING EXTINCTION WATER CONTENT EQUAL TO RESIDUAL WATER CONTENT

EXTINCTION WATER CONTENT FOR CELL AT ROW    10, COLUMN     8 IS LESS THAN RESIDUAL WATER CONTENT-- SETTING EXTINCTION WATER CONTENT EQUAL TO RESIDUAL WATER CONTENT

EXTINCTION WATER CONTENT FOR CELL AT ROW    10, COLUMN     9 IS LESS THAN RESIDUAL WATER CONTENT-- SETTING EXTINCTION WATER CONTENT EQUAL TO RESIDUAL WATER CONTENT

EXTINCTION WATER CONTENT FOR CELL AT ROW    10, COLUMN    10 IS LESS THAN RESIDUAL WATER CONTENT-- SETTING EXTINCTION WATER CONTENT EQUAL TO RESIDUAL WATER CONTENT

EXTINCTION WATER CONTENT FOR CELL AT ROW    11, COLUMN     2 IS LESS THAN RESIDUAL WATER CONTENT-- SETTING EXTINCTION WATER CONTENT EQUAL TO RESIDUAL WATER CONTENT

EXTINCTION WATER CONTENT FOR CELL AT ROW    11, COLUMN     3 IS LESS THAN RESIDUAL WATER CONTENT-- SETTING EXTINCTION WATER CONTENT EQUAL TO RESIDUAL WATER CONTENT

EXTINCTION WATER CONTENT FOR CELL AT ROW    11, COLUMN     4 IS LESS THAN RESIDUAL WATER CONTENT-- SETTING EXTINCTION WATER CONTENT EQUAL TO RESIDUAL WATER CONTENT

EXTINCTION WATER CONTENT FOR CELL AT ROW    11, COLUMN     5 IS LESS THAN RESIDUAL WATER CONTENT-- SETTING EXTINCTION WATER CONTENT EQUAL TO RESIDUAL WATER CONTENT

EXTINCTION WATER CONTENT FOR CELL AT ROW    11, COLUMN     6 IS LESS THAN RESIDUAL WATER CONTENT-- SETTING EXTINCTION WATER CONTENT EQUAL TO RESIDUAL WATER CONTENT

EXTINCTION WATER CONTENT FOR CELL AT ROW    11, COLUMN     7 IS LESS THAN RESIDUAL WATER CONTENT-- SETTING EXTINCTION WATER CONTENT EQUAL TO RESIDUAL WATER CONTENT

EXTINCTION WATER CONTENT FOR CELL AT ROW    11, COLUMN     8 IS LESS THAN RESIDUAL WATER CONTENT-- SETTING EXTINCTION WATER CONTENT EQUAL TO RESIDUAL WATER CONTENT

EXTINCTION WATER CONTENT FOR CELL AT ROW    11, COLUMN     9 IS LESS THAN RESIDUAL WATER CONTENT-- SETTING EXTINCTION WATER CONTENT EQUAL TO RESIDUAL WATER CONTENT

EXTINCTION WATER CONTENT FOR CELL AT ROW    12, COLUMN     1 IS LESS THAN RESIDUAL WATER CONTENT-- SETTING EXTINCTION WATER CONTENT EQUAL TO RESIDUAL WATER CONTENT

EXTINCTION WATER CONTENT FOR CELL AT ROW    12, COLUMN     2 IS LESS THAN RESIDUAL WATER CONTENT-- SETTING EXTINCTION WATER CONTENT EQUAL TO RESIDUAL WATER CONTENT

EXTINCTION WATER CONTENT FOR CELL AT ROW    12, COLUMN     3 IS LESS THAN RESIDUAL WATER CONTENT-- SETTING EXTINCTION WATER CONTENT EQUAL TO RESIDUAL WATER CONTENT

EXTINCTION WATER CONTENT FOR CELL AT ROW    12, COLUMN     4 IS LESS THAN RESIDUAL WATER CONTENT-- SETTING EXTINCTION WATER CONTENT EQUAL TO RESIDUAL WATER CONTENT

EXTINCTION WATER CONTENT FOR CELL AT ROW    12, COLUMN     5 IS LESS THAN RESIDUAL WATER CONTENT-- SETTING EXTINCTION WATER CONTENT EQUAL TO RESIDUAL WATER CONTENT

EXTINCTION WATER CONTENT FOR CELL AT ROW    12, COLUMN     6 IS LESS THAN RESIDUAL WATER CONTENT-- SETTING EXTINCTION WATER CONTENT EQUAL TO RESIDUAL WATER CONTENT

EXTINCTION WATER CONTENT FOR CELL AT ROW    12, COLUMN     7 IS LESS THAN RESIDUAL WATER CONTENT-- SETTING EXTINCTION WATER CONTENT EQUAL TO RESIDUAL WATER CONTENT

EXTINCTION WATER CONTENT FOR CELL AT ROW    12, COLUMN     8 IS LESS THAN RESIDUAL WATER CONTENT-- SETTING EXTINCTION WATER CONTENT EQUAL TO RESIDUAL WATER CONTENT

EXTINCTION WATER CONTENT FOR CELL AT ROW    12, COLUMN     9 IS LESS THAN RESIDUAL WATER CONTENT-- SETTING EXTINCTION WATER CONTENT EQUAL TO RESIDUAL WATER CONTENT

EXTINCTION WATER CONTENT FOR CELL AT ROW    13, COLUMN     1 IS LESS THAN RESIDUAL WATER CONTENT-- SETTING EXTINCTION WATER CONTENT EQUAL TO RESIDUAL WATER CONTENT

EXTINCTION WATER CONTENT FOR CELL AT ROW    13, COLUMN     2 IS LESS THAN RESIDUAL WATER CONTENT-- SETTING EXTINCTION WATER CONTENT EQUAL TO RESIDUAL WATER CONTENT

EXTINCTION WATER CONTENT FOR CELL AT ROW    13, COLUMN     3 IS LESS THAN RESIDUAL WATER CONTENT-- SETTING EXTINCTION WATER CONTENT EQUAL TO RESIDUAL WATER CONTENT

EXTINCTION WATER CONTENT FOR CELL AT ROW    13, COLUMN     4 IS LESS THAN RESIDUAL WATER CONTENT-- SETTING EXTINCTION WATER CONTENT EQUAL TO RESIDUAL WATER CONTENT

EXTINCTION WATER CONTENT FOR CELL AT ROW    13, COLUMN     5 IS LESS THAN RESIDUAL WATER CONTENT-- SETTING EXTINCTION WATER CONTENT EQUAL TO RESIDUAL WATER CONTENT

EXTINCTION WATER CONTENT FOR CELL AT ROW    13, COLUMN     6 IS LESS THAN RESIDUAL WATER CONTENT-- SETTING EXTINCTION WATER CONTENT EQUAL TO RESIDUAL WATER CONTENT

EXTINCTION WATER CONTENT FOR CELL AT ROW    13, COLUMN     7 IS LESS THAN RESIDUAL WATER CONTENT-- SETTING EXTINCTION WATER CONTENT EQUAL TO RESIDUAL WATER CONTENT

EXTINCTION WATER CONTENT FOR CELL AT ROW    13, COLUMN     8 IS LESS THAN RESIDUAL WATER CONTENT-- SETTING EXTINCTION WATER CONTENT EQUAL TO RESIDUAL WATER CONTENT

EXTINCTION WATER CONTENT FOR CELL AT ROW    13, COLUMN     9 IS LESS THAN RESIDUAL WATER CONTENT-- SETTING EXTINCTION WATER CONTENT EQUAL TO RESIDUAL WATER CONTENT

EXTINCTION WATER CONTENT FOR CELL AT ROW    14, COLUMN     2 IS LESS THAN RESIDUAL WATER CONTENT-- SETTING EXTINCTION WATER CONTENT EQUAL TO RESIDUAL WATER CONTENT

EXTINCTION WATER CONTENT FOR CELL AT ROW    14, COLUMN     3 IS LESS THAN RESIDUAL WATER CONTENT-- SETTING EXTINCTION WATER CONTENT EQUAL TO RESIDUAL WATER CONTENT

EXTINCTION WATER CONTENT FOR CELL AT ROW    14, COLUMN     4 IS LESS THAN RESIDUAL WATER CONTENT-- SETTING EXTINCTION WATER CONTENT EQUAL TO RESIDUAL WATER CONTENT

EXTINCTION WATER CONTENT FOR CELL AT ROW    14, COLUMN     5 IS LESS THAN RESIDUAL WATER CONTENT-- SETTING EXTINCTION WATER CONTENT EQUAL TO RESIDUAL WATER CONTENT

EXTINCTION WATER CONTENT FOR CELL AT ROW    14, COLUMN     6 IS LESS THAN RESIDUAL WATER CONTENT-- SETTING EXTINCTION WATER CONTENT EQUAL TO RESIDUAL WATER CONTENT

EXTINCTION WATER CONTENT FOR CELL AT ROW    14, COLUMN     7 IS LESS THAN RESIDUAL WATER CONTENT-- SETTING EXTINCTION WATER CONTENT EQUAL TO RESIDUAL WATER CONTENT

EXTINCTION WATER CONTENT FOR CELL AT ROW    14, COLUMN     8 IS LESS THAN RESIDUAL WATER CONTENT-- SETTING EXTINCTION WATER CONTENT EQUAL TO RESIDUAL WATER CONTENT

EXTINCTION WATER CONTENT FOR CELL AT ROW    14, COLUMN     9 IS LESS THAN RESIDUAL WATER CONTENT-- SETTING EXTINCTION WATER CONTENT EQUAL TO RESIDUAL WATER CONTENT

EXTINCTION WATER CONTENT FOR CELL AT ROW    15, COLUMN     3 IS LESS THAN RESIDUAL WATER CONTENT-- SETTING EXTINCTION WATER CONTENT EQUAL TO RESIDUAL WATER CONTENT

EXTINCTION WATER CONTENT FOR CELL AT ROW    15, COLUMN     4 IS LESS THAN RESIDUAL WATER CONTENT-- SETTING EXTINCTION WATER CONTENT EQUAL TO RESIDUAL WATER CONTENT

EXTINCTION WATER CONTENT FOR CELL AT ROW    15, COLUMN     5 IS LESS THAN RESIDUAL WATER CONTENT-- SETTING EXTINCTION WATER CONTENT EQUAL TO RESIDUAL WATER CONTENT

EXTINCTION WATER CONTENT FOR CELL AT ROW    15, COLUMN     6 IS LESS THAN RESIDUAL WATER CONTENT-- SETTING EXTINCTION WATER CONTENT EQUAL TO RESIDUAL WATER CONTENT

       AIR ENTRY PRESSURE =  -1.10000    

            ROOT PRESSURE =  -75.0000    

            ROOT ACTIVITY =   1.00000    
 # AG well list

 PROCESSING WELL LIST

 LAYER   ROW   COL   MAX STRESS RATE         
 --------------------------------------------
      1      1      6      4     -0.1000E+05
      2      1      6      5     -0.1000E+05
      3      1      7      4     -0.1000E+05
      4      1      7      5     -0.1000E+05
      5      1      8      4     -0.1000E+05
      6      1      8      5     -0.1000E+05

 FINISHED READING WELL LIST

      6 WELLS

 PROCESSING AG STRESS PERIOD DATA
 # AG stress period

 READING AG STRESS PERIOD DATA

 READING IRRIGATION WELL

 NO IRRPOND OR REUSING IRRPOND DATA FROM LAST STRESS PERIOD

 END PROCESSING AG STRESS PERIOD DATA OPTIONS
 
 SOLVING FOR HEAD 
                                                   Max.-Head-Change                         Max.-Flux-Residual
  Residual-Control   Outer-Iter.   Inner-Iter.     Column Row Layer    Maximum-Head-Change  Column Row Layer    Maximum-Flux-Residual          L2-NORM 
          0                 1           6             2    2     1      -0.2729307464E+02       3    3    1        -0.3343270791E+01      0.9349602263E+01
          0                 2           6             1    1     1      -0.3197666080E+02       1   13    1        -0.6358528009E+02      0.6379400873E+02
          0                 3           5             1    1     1      -0.1504245375E+01       6   13    1        -0.2192613187E+01      0.3421340662E+01
          0                 4           5             5   13     1      -0.1460051753E+00       5   13    1        -0.2979618667E+00      0.3680367767E+00
          0                 5           4             5   14     1       0.3048808016E-01       5   13    1         0.1483216656E-01      0.2476323390E-01
          0                 6           2             5   14     1      -0.1193368455E-02       5   13    1        -0.5919688201E-03      0.1772925732E-02
          0                 7           1             5   14     1       0.1316064195E-04       7   10    1         0.2242153653E-04      0.6990722562E-04

    ------------------------------------------------
       NWT REQUIRED            7 OUTER ITERATIONS 
       AND A TOTAL OF         29 INNER ITERATIONS.
    ------------------------------------------------

 OUTPUT CONTROL FOR STRESS PERIOD    1   TIME STEP    1
    PRINT BUDGET
    SAVE BUDGET
    SAVE HEAD FOR ALL LAYERS
 UBDSV2 SAVING "   CONSTANT HEAD" ON UNIT 102 AT TIME STEP 1, STRESS PERIOD 1
 UBDSV1 SAVING "FLOW RIGHT FACE " ON UNIT 102 AT TIME STEP 1, STRESS PERIOD 1
 UBDSV1 SAVING "FLOW FRONT FACE " ON UNIT 102 AT TIME STEP 1, STRESS PERIOD 1

  HEAD DEP BOUNDS   PERIOD    1   STEP     1
 BOUNDARY      1   LAYER   1   ROW    13   COL     1   RATE   -0.287309    
 BOUNDARY      2   LAYER   1   ROW    14   COL     9   RATE    0.285356    



 STREAM LISTING     PERIOD      1   STEP        1

 LAYER ROW COL. STREAM  RCH.  FLOW INTO     FLOW TO   FLOW OUT OF   OVRLND.     DIRECT     STREAM       STREAM     STREAM     STREAM   STREAMBED  STREAMBED
                SEG.NO.  NO.  STRM. RCH.    AQUIFER    STRM. RCH.    RUNOFF     PRECIP       ET          HEAD       DEPTH      WIDTH   CONDCTNC.   GRADIENT

   1    1    1     1     1    5.0000E+00  9.9080E-02   4.9009E+00  0.000E+00  0.000E+00  0.000E+00  1.09378E+03  7.365E-01  5.893E+00  2.652E-02  1.246E+00
   1    2    2     1     2    4.9009E+00  1.5199E-01   4.7489E+00  0.000E+00  0.000E+00  0.000E+00  1.08879E+03  7.320E-01  5.818E+00  4.072E-02  1.244E+00
   1    3    3     1     3    4.7489E+00  1.2820E-01   4.6207E+00  0.000E+00  0.000E+00  0.000E+00  1.08315E+03  7.269E-01  5.733E+00  3.440E-02  1.242E+00
   1    3    4     1     4    4.6207E+00  1.1689E-01   4.5038E+00  0.000E+00  0.000E+00  0.000E+00  1.07813E+03  7.223E-01  5.658E+00  3.140E-02  1.241E+00
   1    4    5     2     1    2.5038E+00  2.5694E-01   2.2469E+00  0.000E+00  0.000E+00  0.000E+00  1.07223E+03  2.942E-01  1.200E+01  7.800E-02  1.098E+00
   1    5    6     2     2    2.2469E+00  1.9662E-01   2.0503E+00  0.000E+00  0.000E+00  0.000E+00  1.06679E+03  2.770E-01  1.200E+01  6.000E-02  1.092E+00
   1    6    6     2     3    2.0503E+00  1.9569E-01   1.8546E+00  0.000E+00  0.000E+00  0.000E+00  1.06205E+03  2.615E-01  1.200E+01  6.000E-02  1.087E+00
   1    7    6     2     4    1.8546E+00  1.9473E-01   1.6599E+00  0.000E+00  0.000E+00  0.000E+00  1.05732E+03  2.455E-01  1.200E+01  6.000E-02  1.082E+00
   1    8    6     2     5    1.6599E+00  1.9373E-01   1.4661E+00  0.000E+00  0.000E+00  0.000E+00  1.05259E+03  2.288E-01  1.200E+01  6.000E-02  1.076E+00
   1    3    5     3     1    2.0000E+00  2.8252E-01   1.7175E+00  0.000E+00  0.000E+00  0.000E+00  1.07555E+03  1.909E+00  9.636E+00  7.227E-02  1.955E+00
   1    3    6     3     2    1.7175E+00  2.4905E-01   1.4684E+00  0.000E+00  0.000E+00  0.000E+00  1.07264E+03  1.727E+00  8.909E+00  6.682E-02  1.864E+00
   1    3    7     3     3    1.4684E+00  1.9718E-01   1.2712E+00  0.000E+00  0.000E+00  0.000E+00  1.06987E+03  1.555E+00  8.218E+00  5.547E-02  1.777E+00
   1    4    8     3     4    1.2712E+00  2.2567E-01   1.0456E+00  0.000E+00  0.000E+00  0.000E+00  1.06682E+03  1.364E+00  7.455E+00  6.709E-02  1.682E+00
   1    5    8     3     5    1.0456E+00  1.5790E-01   8.8768E-01  0.000E+00  0.000E+00  0.000E+00  1.06362E+03  1.164E+00  6.655E+00  4.991E-02  1.582E+00
   1    6    8     3     6    8.8768E-01  5.5980E-02   8.3170E-01  0.000E+00  0.000E+00  0.000E+00  1.06158E+03  1.036E+00  6.145E+00  1.844E-02  1.518E+00
   1    5   10     4     1    1.0000E+01  9.0919E-02   9.9091E+00  0.000E+00  0.000E+00  0.000E+00  1.07836E+03  6.368E-01  1.000E+01  2.500E-02  1.212E+00
   1    5    9     4     2    9.9091E+00  1.8158E-01   9.7275E+00  0.000E+00  0.000E+00  0.000E+00  1.07154E+03  6.315E-01  1.000E+01  5.000E-02  1.211E+00
   1    6    8     4     3    9.7275E+00  1.2689E-01   9.6006E+00  0.000E+00  0.000E+00  0.000E+00  1.06381E+03  6.256E-01  1.000E+01  3.500E-02  1.209E+00
   1    6    8     5     1    1.0432E+01  2.2686E-01   1.0205E+01  0.000E+00  0.000E+00  0.000E+00  1.05868E+03  6.790E-01  1.542E+01  6.166E-02  1.226E+00
   1    7    7     5     2    1.0205E+01  2.7894E-01   9.9265E+00  0.000E+00  0.000E+00  0.000E+00  1.05417E+03  6.732E-01  1.519E+01  7.594E-02  1.224E+00
   1    8    7     5     3    9.9265E+00  1.9221E-01   9.7343E+00  0.000E+00  0.000E+00  0.000E+00  1.04992E+03  6.676E-01  1.497E+01  5.241E-02  1.223E+00
   1    8    6     5     4    9.7343E+00  1.3577E-01   9.5985E+00  0.000E+00  0.000E+00  0.000E+00  1.04691E+03  6.637E-01  1.482E+01  3.706E-02  1.221E+00
   1    9    6     6     1    1.1065E+01  2.2465E-01   1.0840E+01  0.000E+00  0.000E+00  0.000E+00  1.04347E+03  7.442E-01  1.200E+01  6.000E-02  1.248E+00
   1   10    7     6     2    1.0840E+01  2.2410E-01   1.0616E+01  0.000E+00  0.000E+00  0.000E+00  1.03892E+03  7.350E-01  1.200E+01  6.000E-02  1.245E+00
   1   11    7     6     3    1.0616E+01  2.2354E-01   1.0392E+01  0.000E+00  0.000E+00  0.000E+00  1.03436E+03  7.257E-01  1.200E+01  6.000E-02  1.242E+00
   1   12    7     6     4    1.0392E+01  2.2299E-01   1.0169E+01  0.000E+00  0.000E+00  0.000E+00  1.02981E+03  7.165E-01  1.200E+01  6.000E-02  1.239E+00
   1   13    7     6     5    1.0169E+01 -1.0974E-01   1.0279E+01  0.000E+00  0.000E+00  0.000E+00  1.02662E+03  7.141E-01  1.200E+01  2.400E-01 -1.524E-01
   1   14    9     7     1    1.5000E+02  1.3299E+00   1.4867E+02  0.000E+00  0.000E+00  0.000E+00  1.03987E+03  2.288E+00  5.529E+01  5.593E-01  7.926E-01
   1   13    8     7     2    1.4867E+02  1.8245E+00   1.4685E+02  0.000E+00  0.000E+00  0.000E+00  1.03478E+03  2.279E+00  5.526E+01  6.148E-01  9.892E-01
   1   13    7     7     3    1.4685E+02  1.4573E+00   1.4539E+02  0.000E+00  0.000E+00  0.000E+00  1.02969E+03  2.271E+00  5.522E+01  5.585E-01  8.698E-01
   1   13    6     8     1    1.5567E+02  8.1890E-01   1.5485E+02  0.000E+00  0.000E+00  0.000E+00  1.02473E+03  2.853E+00  4.138E+01  4.216E-01  6.474E-01
   1   13    5     8     2    1.5485E+02  9.0639E-02   1.5476E+02  0.000E+00  0.000E+00  0.000E+00  1.01848E+03  2.850E+00  4.133E+01  4.212E-01  7.174E-02
   1   13    4     8     3    1.5476E+02 -2.7168E+00   1.5747E+02  0.000E+00  0.000E+00  0.000E+00  1.01223E+03  2.859E+00  4.146E+01  4.225E+00 -2.143E-01
   1   13    3     8     4    1.5747E+02 -3.7756E+00   1.6125E+02  0.000E+00  0.000E+00  0.000E+00  1.00601E+03  2.882E+00  4.178E+01  4.258E+00 -2.956E-01
   1   13    2     8     5    1.6125E+02 -2.6098E+00   1.6386E+02  0.000E+00  0.000E+00  0.000E+00  9.99778E+02  2.903E+00  4.209E+01  4.290E+00 -2.028E-01
   1   13    1     8     6    1.6386E+02 -1.9855E+00   1.6585E+02  0.000E+00  0.000E+00  0.000E+00  9.94793E+02  2.918E+00  4.232E+01  2.587E+00 -2.558E-01



 UBDSV3 SAVING "           GW ET" ON UNIT  61 AT TIME STEP 1, STRESS PERIOD 1
 UBDSV3 SAVING "    UZF RECHARGE" ON UNIT  61 AT TIME STEP 1, STRESS PERIOD 1
 UBDSV3 SAVING " SURFACE LEAKAGE" ON UNIT  61 AT TIME STEP 1, STRESS PERIOD 1
 UBDSV3 SAVING "       HORT+DUNN" ON UNIT  61 AT TIME STEP 1, STRESS PERIOD 1
 UBDSV3 SAVING "  STORAGE CHANGE" ON UNIT  61 AT TIME STEP 1, STRESS PERIOD 1


UNSATURATED ZONE PACKAGE VOLUMETRIC BUDGET FOR  TIME STEP     1 STRESS PERIOD    1
  ------------------------------------------------------------------------------



     CUMULATIVE VOLUMES      L**3       RATES FOR THIS TIME STEP      L**3/T
     ------------------                 ------------------------

           IN:                                      IN:
           ---                                      ---
        INFILTRATION =       73224.0000          INFILTRATION =           0.8475

          OUT:                                     OUT:
          ----                                     ----
              UZF ET =       0.0000E+00                UZF ET =       0.0000E+00
        UZF RECHARGE =       73224.0000          UZF RECHARGE =           0.8475

            IN - OUT =       0.0000E+00              IN - OUT =       0.0000E+00

          STORAGE:                                 STORAGE:
          --------                                 --------
      STORAGE CHANGE =       0.0000E+00        STORAGE CHANGE =       0.0000E+00

 PERCENT DISCREPANCY IS DIFFERENCE BETWEEN IN-OUT MINUS CHANGE IN STORAGE
 DIVIDED BY THE AVERAGE OF IN AND OUT TIMES 100

 PERCENT DISCREPANCY =           0.00     PERCENT DISCREPANCY =           0.00






 

            AG WELLS      PERIOD    1   STEP   1
 AG WELL      1   LAYER   1   ROW     6   COL     4   RATE     0.00000    
 AG WELL      2   LAYER   1   ROW     6   COL     5   RATE     0.00000    
 AG WELL      3   LAYER   1   ROW     7   COL     4   RATE     0.00000    
 AG WELL      4   LAYER   1   ROW     7   COL     5   RATE     0.00000    
 AG WELL      5   LAYER   1   ROW     8   COL     4   RATE     0.00000    
 AG WELL      6   LAYER   1   ROW     8   COL     5   RATE     0.00000    
 
 

        GW IRRIGATION     PERIOD    1   STEP   1
 
1
  VOLUMETRIC BUDGET FOR AGRICULTURAL FIELDS AT  END OF TIME STEP    1, STRESS PERIOD   1
  ------------------------------------------------------------------------------

     CUMULATIVE VOLUMES      L**3       RATES FOR THIS TIME STEP      L**3/T
     ------------------                 ------------------------

           IN:                                      IN:
           ---                                      ---
               AG WELLS  =           0.0000                 AG WELLS  =           0.0000
      DIVERSION SEGMENTS =           0.0000        DIVERSION SEGMENTS =           0.0000
       IRRIGATION PONDS  =           0.0000         IRRIGATION PONDS  =           0.0000
           GW IRRIGATION =           0.0000             GW IRRIGATION =           0.0000
           SW IRRIGATION =           0.0000             SW IRRIGATION =           0.0000
        SYSTEM LOSSES GW =           0.0000          SYSTEM LOSSES GW =           0.0000
        SYSTEM LOSSES SW =           0.0000          SYSTEM LOSSES SW =           0.0000

                TOTAL IN =           0.0000                  TOTAL IN =           0.0000

          OUT:                                     OUT:
          ----                                     ----
               AG WELLS  =           0.0000                 AG WELLS  =           0.0000
      DIVERSION SEGMENTS =           0.0000        DIVERSION SEGMENTS =           0.0000
       IRRIGATION PONDS  =           0.0000         IRRIGATION PONDS  =           0.0000
           GW IRRIGATION =           0.0000             GW IRRIGATION =           0.0000
           SW IRRIGATION =           0.0000             SW IRRIGATION =           0.0000
        SYSTEM LOSSES GW =           0.0000          SYSTEM LOSSES GW =           0.0000
        SYSTEM LOSSES SW =           0.0000          SYSTEM LOSSES SW =           0.0000

               TOTAL OUT =           0.0000                 TOTAL OUT =           0.0000

                IN - OUT =           0.0000                  IN - OUT =           0.0000

     PERCENT DISCREPANCY =           0.00         PERCENT DISCREPANCY =           0.00




 HEAD WILL BE SAVED ON UNIT   62 AT END OF TIME STEP    1, STRESS PERIOD    1
1
  VOLUMETRIC BUDGET FOR ENTIRE MODEL AT END OF TIME STEP    1, STRESS PERIOD   1
  ------------------------------------------------------------------------------

     CUMULATIVE VOLUMES      L**3       RATES FOR THIS TIME STEP      L**3/T
     ------------------                 ------------------------

           IN:                                      IN:
           ---                                      ---
             STORAGE     =           0.0000               STORAGE     =           0.0000
       CONSTANT HEAD     =           0.0000         CONSTANT HEAD     =           0.0000
     HEAD DEP BOUNDS     =       24654.7383       HEAD DEP BOUNDS     =           0.2854
      STREAM LEAKAGE     =      894399.3125        STREAM LEAKAGE     =          10.3518
        UZF RECHARGE     =       73223.9531          UZF RECHARGE     =           0.8475
               GW ET     =           0.0000                 GW ET     =           0.0000
     SURFACE LEAKAGE     =           0.0000       SURFACE LEAKAGE     =           0.0000
           AG WELLS      =           0.0000             AG WELLS      =           0.0000

                TOTAL IN =      992278.0000                  TOTAL IN =          11.4847

          OUT:                                     OUT:
          ----                                     ----
             STORAGE     =           0.0000               STORAGE     =           0.0000
       CONSTANT HEAD     =           0.0000         CONSTANT HEAD     =           0.0000
     HEAD DEP BOUNDS     =       24823.4590       HEAD DEP BOUNDS     =           0.2873
      STREAM LEAKAGE     =      967454.4375        STREAM LEAKAGE     =          11.1974
        UZF RECHARGE     =           0.0000          UZF RECHARGE     =           0.0000
               GW ET     =           0.0000                 GW ET     =           0.0000
     SURFACE LEAKAGE     =           0.0000       SURFACE LEAKAGE     =           0.0000
           AG WELLS      =           0.0000             AG WELLS      =           0.0000

               TOTAL OUT =      992277.8750                 TOTAL OUT =          11.4847

                IN - OUT =           0.1250                  IN - OUT =       9.5367E-07

     PERCENT DISCREPANCY =           0.00         PERCENT DISCREPANCY =           0.00






         TIME SUMMARY AT END OF TIME STEP    1 IN STRESS PERIOD    1
                    SECONDS     MINUTES      HOURS       DAYS        YEARS
                    -----------------------------------------------------------
   TIME STEP LENGTH  86400.      1440.0      24.000      1.0000     2.73785E-03
 STRESS PERIOD TIME  86400.      1440.0      24.000      1.0000     2.73785E-03
         TOTAL TIME  86400.      1440.0      24.000      1.0000     2.73785E-03
1
1
                            STRESS PERIOD NO.    2, LENGTH =   2630000.    
                            -----------------------------------------------

                              NUMBER OF TIME STEPS =    30

                               MULTIPLIER FOR DELT =     1.000

                            INITIAL TIME STEP SIZE =   87666.66    

 REUSING NON-PARAMETER GHB CELLS FROM LAST STRESS PERIOD

      2 GHB CELLS

 REUSING STREAM SEGMENT DATA FROM LAST STRESS PERIOD



            AREAL INFILTRATION RATE
 READING ON UNIT   19 WITH FORMAT: (FREE)              

            1           2           3           4           5           6           7           8           9          10
 ........................................................................................................................
   1   1.0000E-10  2.0000E-10   0.000       0.000       0.000       0.000       0.000       0.000       0.000       0.000    
   2   2.0000E-10  1.0000E-10  2.0000E-10   0.000       0.000      8.0000E-10  8.0000E-10  5.0000E-10   0.000       0.000    
   3    0.000      5.0000E-10  1.0000E-10  1.0000E-10  8.0000E-10  8.0000E-10  5.0000E-10  5.0000E-10   0.000       0.000    
   4   8.0000E-10  5.0000E-10  1.0000E-10  1.0000E-10  1.0000E-10  1.0000E-10  1.0000E-10  1.0000E-10  2.0000E-10   0.000    
   5   8.0000E-10  5.0000E-10  1.0000E-10  1.0000E-10  1.0000E-10  1.0000E-10  1.0000E-10  1.0000E-10  1.0000E-10  1.0000E-10
   6   8.0000E-10  5.0000E-10  5.0000E-10  2.0000E-10  2.0000E-10  1.0000E-10  1.0000E-10  1.0000E-10  1.0000E-10  5.0000E-10
   7   8.0000E-10  5.0000E-10  5.0000E-10  2.0000E-10  2.0000E-10  1.0000E-10  1.0000E-10  2.0000E-10  2.0000E-10   0.000    
   8    0.000      5.0000E-10  5.0000E-10  2.0000E-10  2.0000E-10  1.0000E-10  1.0000E-10  2.0000E-10  5.0000E-10   0.000    
   9    0.000      5.0000E-10  5.0000E-10  2.0000E-10  2.0000E-10  1.0000E-10  1.0000E-10  2.0000E-10  5.0000E-10   0.000    
  10    0.000      5.0000E-10  5.0000E-10  2.0000E-10  2.0000E-10  1.0000E-10  1.0000E-10  2.0000E-10  5.0000E-10  8.0000E-10
  11    0.000      1.0000E-10  1.0000E-10  1.0000E-10  1.0000E-10  1.0000E-10  1.0000E-10  2.0000E-10  5.0000E-10   0.000    
  12   1.0000E-10  1.0000E-10  1.0000E-10  1.0000E-10  1.0000E-10  1.0000E-10  1.0000E-10  1.0000E-10  2.0000E-10   0.000    
  13   1.0000E-10  1.0000E-10  2.0000E-10  2.0000E-10  2.0000E-10  2.0000E-10  2.0000E-10  1.0000E-10  1.0000E-10   0.000    
  14    0.000      2.0000E-10  5.0000E-10  5.0000E-10  5.0000E-10  5.0000E-10  5.0000E-10  2.0000E-10  1.0000E-10   0.000    
  15    0.000       0.000      8.0000E-10  8.0000E-10  8.0000E-10  8.0000E-10   0.000       0.000       0.000       0.000    

                  ET RATE =  5.000000E-10

 USING ET EXTINCTION DEPTH FROM PREVIOUS STRESS PERIOD. CURRENT PERIOD IS:       2

 USING EXTINCTION WATER CONTENT FROM PREVIOUS STRESS PERIOD. CURRENT PERIOD IS:       2

 USING AIR ENTRY PRESSURE FROM PREVIOUS STRESS PERIOD. CURRENT PERIOD IS:       2

 USING ROOT PRESSURE HEAD FROM PREVIOUS STRESS PERIOD. CURRENT PERIOD IS:       2

 USING ROOT ACTIVITY FROM PREVIOUS STRESS PERIOD. CURRENT PERIOD IS:       2

 PROCESSING AG STRESS PERIOD DATA

 READING AG STRESS PERIOD DATA

 READING IRRIGATION WELL

 NO IRRPOND OR REUSING IRRPOND DATA FROM LAST STRESS PERIOD

 END PROCESSING AG STRESS PERIOD DATA OPTIONS
 
 SOLVING FOR HEAD 
                                                   Max.-Head-Change                         Max.-Flux-Residual
  Residual-Control   Outer-Iter.   Inner-Iter.     Column Row Layer    Maximum-Head-Change  Column Row Layer    Maximum-Flux-Residual          L2-NORM 
          0                 1           2             4   13     1       0.6100924705E-02       4   13    1         0.3498421629E+00      0.7241934999E+00
          0                 2           2             4   13     1      -0.5804794631E-03       4   13    1        -0.3422448976E-01      0.7535272346E-01
          0                 3           1             4   13     1       0.3891332990E-04       4   13    1         0.2358904650E-02      0.5142848648E-02

    ------------------------------------------------
       NWT REQUIRED            3 OUTER ITERATIONS 
       AND A TOTAL OF          5 INNER ITERATIONS.
    ------------------------------------------------

 NO OUTPUT CONTROL FOR STRESS PERIOD    2   TIME STEP    1
 
 SOLVING FOR HEAD 
                                                   Max.-Head-Change                         Max.-Flux-Residual
  Residual-Control   Outer-Iter.   Inner-Iter.     Column Row Layer    Maximum-Head-Change  Column Row Layer    Maximum-Flux-Residual          L2-NORM 
          0                 1           2             2   13     1       0.5599477267E-02       4   13    1         0.3174742414E+00      0.6799943738E+00
          0                 2           2             4   13     1      -0.5332587006E-03       4   13    1        -0.3142262589E-01      0.6665520164E-01
          0                 3           1             4   13     1       0.3577303958E-04       4   13    1         0.2167280710E-02      0.4539675189E-02

    ------------------------------------------------
       NWT REQUIRED            3 OUTER ITERATIONS 
       AND A TOTAL OF          5 INNER ITERATIONS.
    ------------------------------------------------

 NO OUTPUT CONTROL FOR STRESS PERIOD    2   TIME STEP    2
 
 SOLVING FOR HEAD 
                                                   Max.-Head-Change                         Max.-Flux-Residual
  Residual-Control   Outer-Iter.   Inner-Iter.     Column Row Layer    Maximum-Head-Change  Column Row Layer    Maximum-Flux-Residual          L2-NORM 
          0                 1           2             2   13     1       0.5185885869E-02       2   13    1         0.2917486315E+00      0.6422044287E+00
          0                 2           2             4   13     1      -0.4838765933E-03       4   13    1        -0.2849621783E-01      0.6300674672E-01
          0                 3           1             4   13     1       0.3246235682E-04       4   13    1         0.1965554019E-02      0.4296746048E-02

    ------------------------------------------------
       NWT REQUIRED            3 OUTER ITERATIONS 
       AND A TOTAL OF          5 INNER ITERATIONS.
    ------------------------------------------------

 NO OUTPUT CONTROL FOR STRESS PERIOD    2   TIME STEP    3
 
 SOLVING FOR HEAD 
                                                   Max.-Head-Change                         Max.-Flux-Residual
  Residual-Control   Outer-Iter.   Inner-Iter.     Column Row Layer    Maximum-Head-Change  Column Row Layer    Maximum-Flux-Residual          L2-NORM 
          0                 1           2             2   13     1       0.4803158337E-02       2   13    1         0.2701875710E+00      0.6081806374E+00
          0                 2           2             2   13     1      -0.4473275852E-03       2   13    1        -0.2586634420E-01      0.5972361122E-01
          0                 3           1             4   13     1       0.2948124881E-04       4   13    1         0.1783971147E-02      0.4078995360E-02

    ------------------------------------------------
       NWT REQUIRED            3 OUTER ITERATIONS 
       AND A TOTAL OF          5 INNER ITERATIONS.
    ------------------------------------------------

 NO OUTPUT CONTROL FOR STRESS PERIOD    2   TIME STEP    4
 
 SOLVING FOR HEAD 
                                                   Max.-Head-Change                         Max.-Flux-Residual
  Residual-Control   Outer-Iter.   Inner-Iter.     Column Row Layer    Maximum-Head-Change  Column Row Layer    Maximum-Flux-Residual          L2-NORM 
          0                 1           2             2   13     1       0.4449054576E-02       2   13    1         0.2502403416E+00      0.5775486203E+00
          0                 2           2             2   13     1      -0.4144951945E-03       2   13    1        -0.2396502121E-01      0.5676908636E-01
          0                 3           1             4   13     1       0.2676434900E-04       4   13    1         0.1618536196E-02      0.3881600473E-02

    ------------------------------------------------
       NWT REQUIRED            3 OUTER ITERATIONS 
       AND A TOTAL OF          5 INNER ITERATIONS.
    ------------------------------------------------

 NO OUTPUT CONTROL FOR STRESS PERIOD    2   TIME STEP    5
 
 SOLVING FOR HEAD 
                                                   Max.-Head-Change                         Max.-Flux-Residual
  Residual-Control   Outer-Iter.   Inner-Iter.     Column Row Layer    Maximum-Head-Change  Column Row Layer    Maximum-Flux-Residual          L2-NORM 
          0                 1           2             2   13     1       0.4121420200E-02       2   13    1         0.2317853597E+00      0.5499870778E+00
          0                 2           2             2   13     1      -0.3840809481E-03       2   13    1        -0.2220384933E-01      0.5411217172E-01
          0                 3           1             2    2     1       0.2466198612E-04       4   13    1         0.1470698258E-02      0.3705339412E-02

    ------------------------------------------------
       NWT REQUIRED            3 OUTER ITERATIONS 
       AND A TOTAL OF          5 INNER ITERATIONS.
    ------------------------------------------------

 NO OUTPUT CONTROL FOR STRESS PERIOD    2   TIME STEP    6
 
 SOLVING FOR HEAD 
                                                   Max.-Head-Change                         Max.-Flux-Residual
  Residual-Control   Outer-Iter.   Inner-Iter.     Column Row Layer    Maximum-Head-Change  Column Row Layer    Maximum-Flux-Residual          L2-NORM 
          0                 1           2             2   13     1       0.3818219874E-02       2   13    1         0.2147077765E+00      0.5251892447E+00
          0                 2           2             2    2     1      -0.3594199434E-03       2   13    1        -0.2057523487E-01      0.5172366111E-01
          0                 3           1             2    2     1       0.2447516003E-04       2   13    1         0.1355089015E-02      0.3546947230E-02

    ------------------------------------------------
       NWT REQUIRED            3 OUTER ITERATIONS 
       AND A TOTAL OF          5 INNER ITERATIONS.
    ------------------------------------------------

 NO OUTPUT CONTROL FOR STRESS PERIOD    2   TIME STEP    7
 
 SOLVING FOR HEAD 
                                                   Max.-Head-Change                         Max.-Flux-Residual
  Residual-Control   Outer-Iter.   Inner-Iter.     Column Row Layer    Maximum-Head-Change  Column Row Layer    Maximum-Flux-Residual          L2-NORM 
          0                 1           2             2    2     1       0.3667086308E-02       2   13    1         0.1989111621E+00      0.5028831504E+00
          0                 2           2             2    2     1      -0.3567080857E-03       2    2    1        -0.1917041274E-01      0.4957693410E-01
          0                 3           1             2    2     1       0.2429049239E-04       2    2    1         0.1341929100E-02      0.3404635943E-02

    ------------------------------------------------
       NWT REQUIRED            3 OUTER ITERATIONS 
       AND A TOTAL OF          5 INNER ITERATIONS.
    ------------------------------------------------

 NO OUTPUT CONTROL FOR STRESS PERIOD    2   TIME STEP    8
 
 SOLVING FOR HEAD 
                                                   Max.-Head-Change                         Max.-Flux-Residual
  Residual-Control   Outer-Iter.   Inner-Iter.     Column Row Layer    Maximum-Head-Change  Column Row Layer    Maximum-Flux-Residual          L2-NORM 
          0                 1           2             2    2     1       0.3639701526E-02       2    2    1         0.1902628048E+00      0.4828025545E+00
          0                 2           2             2    2     1      -0.3540442807E-03       2    2    1        -0.1902631851E-01      0.4764127822E-01
          0                 3           1             2    2     1       0.2410909700E-04       2    2    1         0.1331842496E-02      0.3275292493E-02

    ------------------------------------------------
       NWT REQUIRED            3 OUTER ITERATIONS 
       AND A TOTAL OF          5 INNER ITERATIONS.
    ------------------------------------------------

 NO OUTPUT CONTROL FOR STRESS PERIOD    2   TIME STEP    9
 
 SOLVING FOR HEAD 
                                                   Max.-Head-Change                         Max.-Flux-Residual
  Residual-Control   Outer-Iter.   Inner-Iter.     Column Row Layer    Maximum-Head-Change  Column Row Layer    Maximum-Flux-Residual          L2-NORM 
          0                 1           2             2    2     1       0.3612629613E-02       2    2    1         0.1888383816E+00      0.4647319796E+00
          0                 2           2             2    2     1      -0.3514109102E-03       2    2    1        -0.1888387543E-01      0.4590343450E-01
          0                 3           1             2    2     1       0.2392977464E-04       2    2    1         0.1321871496E-02      0.3160731631E-02

    ------------------------------------------------
       NWT REQUIRED            3 OUTER ITERATIONS 
       AND A TOTAL OF          5 INNER ITERATIONS.
    ------------------------------------------------

 NO OUTPUT CONTROL FOR STRESS PERIOD    2   TIME STEP   10
 
 SOLVING FOR HEAD 
                                                   Max.-Head-Change                         Max.-Flux-Residual
  Residual-Control   Outer-Iter.   Inner-Iter.     Column Row Layer    Maximum-Head-Change  Column Row Layer    Maximum-Flux-Residual          L2-NORM 
          0                 1           2             2    2     1       0.3585951723E-02       2    2    1         0.1874347316E+00      0.4484533380E+00
          0                 2           2             2    2     1      -0.3488158679E-03       2    2    1        -0.1874350968E-01      0.4433587596E-01
          0                 3           1             2    2     1       0.2375306183E-04       2    2    1         0.1312045902E-02      0.3055843315E-02

    ------------------------------------------------
       NWT REQUIRED            3 OUTER ITERATIONS 
       AND A TOTAL OF          5 INNER ITERATIONS.
    ------------------------------------------------

 NO OUTPUT CONTROL FOR STRESS PERIOD    2   TIME STEP   11
 
 SOLVING FOR HEAD 
                                                   Max.-Head-Change                         Max.-Flux-Residual
  Residual-Control   Outer-Iter.   Inner-Iter.     Column Row Layer    Maximum-Head-Change  Column Row Layer    Maximum-Flux-Residual          L2-NORM 
          0                 1           2             2    2     1       0.3559572070E-02       2    2    1         0.1860468425E+00      0.4337720566E+00
          0                 2           2             2    2     1      -0.3462498357E-03       2    2    1        -0.1860472002E-01      0.4292408279E-01
          0                 3           1             2    2     1       0.2357832501E-04       2    2    1         0.1302330634E-02      0.2962484943E-02

    ------------------------------------------------
       NWT REQUIRED            3 OUTER ITERATIONS 
       AND A TOTAL OF          5 INNER ITERATIONS.
    ------------------------------------------------

 NO OUTPUT CONTROL FOR STRESS PERIOD    2   TIME STEP   12
 
 SOLVING FOR HEAD 
                                                   Max.-Head-Change                         Max.-Flux-Residual
  Residual-Control   Outer-Iter.   Inner-Iter.     Column Row Layer    Maximum-Head-Change  Column Row Layer    Maximum-Flux-Residual          L2-NORM 
          0                 1           2             2    2     1       0.3533664020E-02       2    2    1         0.1846837542E+00      0.4205339692E+00
          0                 2           2             2    2     1      -0.3437296778E-03       2    2    1        -0.1846841048E-01      0.4165005809E-01
          0                 3           1             2    2     1       0.2340671109E-04       2    2    1         0.1292788942E-02      0.2877718833E-02

    ------------------------------------------------
       NWT REQUIRED            3 OUTER ITERATIONS 
       AND A TOTAL OF          5 INNER ITERATIONS.
    ------------------------------------------------

 NO OUTPUT CONTROL FOR STRESS PERIOD    2   TIME STEP   13
 
 SOLVING FOR HEAD 
                                                   Max.-Head-Change                         Max.-Flux-Residual
  Residual-Control   Outer-Iter.   Inner-Iter.     Column Row Layer    Maximum-Head-Change  Column Row Layer    Maximum-Flux-Residual          L2-NORM 
          0                 1           2             2    2     1       0.3508044192E-02       2    2    1         0.1833358974E+00      0.4085698948E+00
          0                 2           2             2    2     1      -0.3412375573E-03       2    2    1        -0.1833362414E-01      0.4049792669E-01
          0                 3           1             2    2     1       0.2323700736E-04       2    2    1         0.1283353912E-02      0.2801484338E-02

    ------------------------------------------------
       NWT REQUIRED            3 OUTER ITERATIONS 
       AND A TOTAL OF          5 INNER ITERATIONS.
    ------------------------------------------------

 NO OUTPUT CONTROL FOR STRESS PERIOD    2   TIME STEP   14
 
 SOLVING FOR HEAD 
                                                   Max.-Head-Change                         Max.-Flux-Residual
  Residual-Control   Outer-Iter.   Inner-Iter.     Column Row Layer    Maximum-Head-Change  Column Row Layer    Maximum-Flux-Residual          L2-NORM 
          0                 1           2             2    2     1       0.3482794205E-02       2    2    1         0.1820075363E+00      0.3977355137E+00
          0                 2           2             2    2     1      -0.3387814118E-03       2    2    1        -0.1820078734E-01      0.3945370853E-01
          0                 3           1             2    2     1       0.2306975320E-04       2    2    1         0.1274055342E-02      0.2733134387E-02

    ------------------------------------------------
       NWT REQUIRED            3 OUTER ITERATIONS 
       AND A TOTAL OF          5 INNER ITERATIONS.
    ------------------------------------------------

 NO OUTPUT CONTROL FOR STRESS PERIOD    2   TIME STEP   15
 
 SOLVING FOR HEAD 
                                                   Max.-Head-Change                         Max.-Flux-Residual
  Residual-Control   Outer-Iter.   Inner-Iter.     Column Row Layer    Maximum-Head-Change  Column Row Layer    Maximum-Flux-Residual          L2-NORM 
          0                 1           2             2    2     1       0.3457908397E-02       2    2    1         0.1806983512E+00      0.3879330578E+00
          0                 2           2             2    2     1      -0.3363606910E-03       2    2    1        -0.1806986816E-01      0.3851544724E-01
          0                 3           1             2    2     1       0.2290491097E-04       2    2    1         0.1264891002E-02      0.2670056916E-02

    ------------------------------------------------
       NWT REQUIRED            3 OUTER ITERATIONS 
       AND A TOTAL OF          5 INNER ITERATIONS.
    ------------------------------------------------

 NO OUTPUT CONTROL FOR STRESS PERIOD    2   TIME STEP   16
 
 SOLVING FOR HEAD 
                                                   Max.-Head-Change                         Max.-Flux-Residual
  Residual-Control   Outer-Iter.   Inner-Iter.     Column Row Layer    Maximum-Head-Change  Column Row Layer    Maximum-Flux-Residual          L2-NORM 
          0                 1           2             2    2     1       0.3433381188E-02       2    2    1         0.1794080483E+00      0.3790052448E+00
          0                 2           2             2    2     1      -0.3339748532E-03       2    2    1        -0.1794083723E-01      0.3764731350E-01
          0                 3           1             2    2     1       0.2274244495E-04       2    2    1         0.1255858856E-02      0.2612064503E-02

    ------------------------------------------------
       NWT REQUIRED            3 OUTER ITERATIONS 
       AND A TOTAL OF          5 INNER ITERATIONS.
    ------------------------------------------------

 NO OUTPUT CONTROL FOR STRESS PERIOD    2   TIME STEP   17
 
 SOLVING FOR HEAD 
                                                   Max.-Head-Change                         Max.-Flux-Residual
  Residual-Control   Outer-Iter.   Inner-Iter.     Column Row Layer    Maximum-Head-Change  Column Row Layer    Maximum-Flux-Residual          L2-NORM 
          0                 1           2             2    2     1       0.3409206347E-02       2    2    1         0.1781363384E+00      0.3708961330E+00
          0                 2           2             2    2     1      -0.3316232907E-03       2    2    1        -0.1781366561E-01      0.3686565533E-01
          0                 3           1             2    2     1       0.2258231229E-04       2    2    1         0.1246956843E-02      0.2556500970E-02

    ------------------------------------------------
       NWT REQUIRED            3 OUTER ITERATIONS 
       AND A TOTAL OF          5 INNER ITERATIONS.
    ------------------------------------------------

 NO OUTPUT CONTROL FOR STRESS PERIOD    2   TIME STEP   18
 
 SOLVING FOR HEAD 
                                                   Max.-Head-Change                         Max.-Flux-Residual
  Residual-Control   Outer-Iter.   Inner-Iter.     Column Row Layer    Maximum-Head-Change  Column Row Layer    Maximum-Flux-Residual          L2-NORM 
          0                 1           2             2    2     1       0.3385291378E-02       2    2    1         0.1768783460E+00      0.3634931597E+00
          0                 2           2             2    2     1      -0.3292970068E-03       2    2    1        -0.1768786576E-01      0.3614959700E-01
          0                 3           1             2    2     1       0.2242390047E-04       2    2    1         0.1238150837E-02      0.2512180603E-02

    ------------------------------------------------
       NWT REQUIRED            3 OUTER ITERATIONS 
       AND A TOTAL OF          5 INNER ITERATIONS.
    ------------------------------------------------

 NO OUTPUT CONTROL FOR STRESS PERIOD    2   TIME STEP   19
 
 SOLVING FOR HEAD 
                                                   Max.-Head-Change                         Max.-Flux-Residual
  Residual-Control   Outer-Iter.   Inner-Iter.     Column Row Layer    Maximum-Head-Change  Column Row Layer    Maximum-Flux-Residual          L2-NORM 
          0                 1           2             2    2     1       0.3361718407E-02       2    2    1         0.1756383800E+00      0.3567231993E+00
          0                 2           2             2    2     1      -0.3270039905E-03       2    2    1        -0.1756386858E-01      0.3549539184E-01
          0                 3           1             2    2     1       0.2226775505E-04       2    2    1         0.1229471031E-02      0.2468470316E-02

    ------------------------------------------------
       NWT REQUIRED            3 OUTER ITERATIONS 
       AND A TOTAL OF          5 INNER ITERATIONS.
    ------------------------------------------------

 NO OUTPUT CONTROL FOR STRESS PERIOD    2   TIME STEP   20
 
 SOLVING FOR HEAD 
                                                   Max.-Head-Change                         Max.-Flux-Residual
  Residual-Control   Outer-Iter.   Inner-Iter.     Column Row Layer    Maximum-Head-Change  Column Row Layer    Maximum-Flux-Residual          L2-NORM 
          0                 1           2             2    2     1       0.3338482268E-02       2    2    1         0.1744161462E+00      0.3505178237E+00
          0                 2           2             2    2     1      -0.3247437386E-03       2    2    1        -0.1744164458E-01      0.3489465538E-01
          0                 3           1             2    2     1       0.2211384026E-04       2    2    1         0.1220915359E-02      0.2427744565E-02

    ------------------------------------------------
       NWT REQUIRED            3 OUTER ITERATIONS 
       AND A TOTAL OF          5 INNER ITERATIONS.
    ------------------------------------------------

 NO OUTPUT CONTROL FOR STRESS PERIOD    2   TIME STEP   21
 
 SOLVING FOR HEAD 
                                                   Max.-Head-Change                         Max.-Flux-Residual
  Residual-Control   Outer-Iter.   Inner-Iter.     Column Row Layer    Maximum-Head-Change  Column Row Layer    Maximum-Flux-Residual          L2-NORM 
          0                 1           2             2    2     1       0.3315577080E-02       2    2    1         0.1732113769E+00      0.3448126797E+00
          0                 2           2             2    2     1      -0.3225156803E-03       2    2    1        -0.1732116711E-01      0.3434182587E-01
          0                 3           1             2    2     1       0.2196211755E-04       2    2    1         0.1212481936E-02      0.2391383643E-02

    ------------------------------------------------
       NWT REQUIRED            3 OUTER ITERATIONS 
       AND A TOTAL OF          5 INNER ITERATIONS.
    ------------------------------------------------

 NO OUTPUT CONTROL FOR STRESS PERIOD    2   TIME STEP   22
 
 SOLVING FOR HEAD 
                                                   Max.-Head-Change                         Max.-Flux-Residual
  Residual-Control   Outer-Iter.   Inner-Iter.     Column Row Layer    Maximum-Head-Change  Column Row Layer    Maximum-Flux-Residual          L2-NORM 
          0                 1           2             2    2     1       0.3292997830E-02       2    2    1         0.1720237670E+00      0.3395515490E+00
          0                 2           2             2    2     1      -0.3203193263E-03       2    2    1        -0.1720240555E-01      0.3383132871E-01
          0                 3           1             2    2     1       0.2181255424E-04       2    2    1         0.1204168624E-02      0.2356708687E-02

    ------------------------------------------------
       NWT REQUIRED            3 OUTER ITERATIONS 
       AND A TOTAL OF          5 INNER ITERATIONS.
    ------------------------------------------------

 NO OUTPUT CONTROL FOR STRESS PERIOD    2   TIME STEP   23
 
 SOLVING FOR HEAD 
                                                   Max.-Head-Change                         Max.-Flux-Residual
  Residual-Control   Outer-Iter.   Inner-Iter.     Column Row Layer    Maximum-Head-Change  Column Row Layer    Maximum-Flux-Residual          L2-NORM 
          0                 1           2             2    2     1       0.3270656995E-02       2    2    1         0.1708487380E+00      0.3346883946E+00
          0                 2           2             2    2     1      -0.3181461644E-03       2    2    1        -0.1708490210E-01      0.3335781311E-01
          0                 3           1             2    2     1       0.2166457026E-04       2    2    1         0.1195943408E-02      0.2324589313E-02

    ------------------------------------------------
       NWT REQUIRED            3 OUTER ITERATIONS 
       AND A TOTAL OF          5 INNER ITERATIONS.
    ------------------------------------------------

 NO OUTPUT CONTROL FOR STRESS PERIOD    2   TIME STEP   24
 
 SOLVING FOR HEAD 
                                                   Max.-Head-Change                         Max.-Flux-Residual
  Residual-Control   Outer-Iter.   Inner-Iter.     Column Row Layer    Maximum-Head-Change  Column Row Layer    Maximum-Flux-Residual          L2-NORM 
          0                 1           2             2    2     1       0.3248715244E-02       2    2    1         0.1696947078E+00      0.3301816819E+00
          0                 2           2             2    2     1      -0.3160118223E-03       2    2    1        -0.1696949856E-01      0.3291987282E-01
          0                 3           1             2    2     1       0.2151922944E-04       2    2    1         0.1187865142E-02      0.2295108622E-02

    ------------------------------------------------
       NWT REQUIRED            3 OUTER ITERATIONS 
       AND A TOTAL OF          5 INNER ITERATIONS.
    ------------------------------------------------

 NO OUTPUT CONTROL FOR STRESS PERIOD    2   TIME STEP   25
 
 SOLVING FOR HEAD 
                                                   Max.-Head-Change                         Max.-Flux-Residual
  Residual-Control   Outer-Iter.   Inner-Iter.     Column Row Layer    Maximum-Head-Change  Column Row Layer    Maximum-Flux-Residual          L2-NORM 
          0                 1           2             2    2     1       0.3226996715E-02       2    2    1         0.1685524980E+00      0.3259932794E+00
          0                 2           2             2    2     1      -0.3138991938E-03       2    2    1        -0.1685527706E-01      0.3251228463E-01
          0                 3           1             2    2     1       0.2137536735E-04       2    2    1         0.1179869648E-02      0.2268131124E-02

    ------------------------------------------------
       NWT REQUIRED            3 OUTER ITERATIONS 
       AND A TOTAL OF          5 INNER ITERATIONS.
    ------------------------------------------------

 NO OUTPUT CONTROL FOR STRESS PERIOD    2   TIME STEP   26
 
 SOLVING FOR HEAD 
                                                   Max.-Head-Change                         Max.-Flux-Residual
  Residual-Control   Outer-Iter.   Inner-Iter.     Column Row Layer    Maximum-Head-Change  Column Row Layer    Maximum-Flux-Residual          L2-NORM 
          0                 1           2             2    2     1       0.3205584947E-02       2    2    1         0.1674264150E+00      0.3220848271E+00
          0                 2           2             2    2     1      -0.3118164051E-03       2    2    1        -0.1674266826E-01      0.3213059415E-01
          0                 3           1             2    2     1       0.2123353734E-04       2    2    1         0.1171987020E-02      0.2241605119E-02

    ------------------------------------------------
       NWT REQUIRED            3 OUTER ITERATIONS 
       AND A TOTAL OF          5 INNER ITERATIONS.
    ------------------------------------------------

 NO OUTPUT CONTROL FOR STRESS PERIOD    2   TIME STEP   27
 
 SOLVING FOR HEAD 
                                                   Max.-Head-Change                         Max.-Flux-Residual
  Residual-Control   Outer-Iter.   Inner-Iter.     Column Row Layer    Maximum-Head-Change  Column Row Layer    Maximum-Flux-Residual          L2-NORM 
          0                 1           2             2    2     1       0.3184474539E-02       2    2    1         0.1663162373E+00      0.3184309181E+00
          0                 2           2             2    2     1      -0.3097629305E-03       2    2    1        -0.1663165000E-01      0.3177360715E-01
          0                 3           1             2    2     1       0.2109370320E-04       2    2    1         0.1164215754E-02      0.2217561501E-02

    ------------------------------------------------
       NWT REQUIRED            3 OUTER ITERATIONS 
       AND A TOTAL OF          5 INNER ITERATIONS.
    ------------------------------------------------

 NO OUTPUT CONTROL FOR STRESS PERIOD    2   TIME STEP   28
 
 SOLVING FOR HEAD 
                                                   Max.-Head-Change                         Max.-Flux-Residual
  Residual-Control   Outer-Iter.   Inner-Iter.     Column Row Layer    Maximum-Head-Change  Column Row Layer    Maximum-Flux-Residual          L2-NORM 
          0                 1           2             2    2     1       0.3163661048E-02       2    2    1         0.1652216847E+00      0.3150072837E+00
          0                 2           2             2    2     1      -0.3077383379E-03       2    2    1        -0.1652219426E-01      0.3143871669E-01
          0                 3           1             2    2     1       0.2095583581E-04       2    2    1         0.1156553839E-02      0.2195010421E-02

    ------------------------------------------------
       NWT REQUIRED            3 OUTER ITERATIONS 
       AND A TOTAL OF          5 INNER ITERATIONS.
    ------------------------------------------------

 NO OUTPUT CONTROL FOR STRESS PERIOD    2   TIME STEP   29
 
 SOLVING FOR HEAD 
                                                   Max.-Head-Change                         Max.-Flux-Residual
  Residual-Control   Outer-Iter.   Inner-Iter.     Column Row Layer    Maximum-Head-Change  Column Row Layer    Maximum-Flux-Residual          L2-NORM 
          0                 1           2             2    2     1       0.3143052939E-02       2    2    1         0.1641379735E+00      0.3117829126E+00
          0                 2           2             2    2     1      -0.3057337238E-03       2    2    1        -0.1641382266E-01      0.3112279487E-01
          0                 3           1             2    2     1       0.2081932930E-04       2    2    1         0.1148967840E-02      0.2173582663E-02

    ------------------------------------------------
       NWT REQUIRED            3 OUTER ITERATIONS 
       AND A TOTAL OF          5 INNER ITERATIONS.
    ------------------------------------------------

 NO OUTPUT CONTROL FOR STRESS PERIOD    2   TIME STEP   30



 STREAM LISTING     PERIOD      2   STEP       30

 LAYER ROW COL. STREAM  RCH.  FLOW INTO     FLOW TO   FLOW OUT OF   OVRLND.     DIRECT     STREAM       STREAM     STREAM     STREAM   STREAMBED  STREAMBED
                SEG.NO.  NO.  STRM. RCH.    AQUIFER    STRM. RCH.    RUNOFF     PRECIP       ET          HEAD       DEPTH      WIDTH   CONDCTNC.   GRADIENT

   1    1    1     1     1    2.2000E+01  2.3088E-01   2.1769E+01  0.000E+00  0.000E+00  0.000E+00  1.09418E+03  1.132E+00  1.242E+01  5.588E-02  1.377E+00
   1    2    2     1     2    2.1769E+01  3.5689E-01   2.1412E+01  0.000E+00  0.000E+00  0.000E+00  1.08919E+03  1.127E+00  1.235E+01  8.648E-02  1.376E+00
   1    3    3     1     3    2.1412E+01  3.0372E-01   2.1109E+01  0.000E+00  0.000E+00  0.000E+00  1.08354E+03  1.121E+00  1.228E+01  7.369E-02  1.374E+00
   1    3    4     1     4    2.1109E+01  2.7914E-01   2.0829E+01  0.000E+00  0.000E+00  0.000E+00  1.07852E+03  1.117E+00  1.222E+01  6.781E-02  1.372E+00
   1    4    5     2     1    1.8829E+01  3.1306E-01   1.8516E+01  0.000E+00  0.000E+00  0.000E+00  1.07295E+03  1.014E+00  1.200E+01  7.800E-02  1.338E+00
   1    5    6     2     2    1.8516E+01  2.4027E-01   1.8276E+01  0.000E+00  0.000E+00  0.000E+00  1.06751E+03  1.005E+00  1.200E+01  6.000E-02  1.335E+00
   1    6    6     2     3    1.8276E+01  2.3980E-01   1.8036E+01  0.000E+00  0.000E+00  0.000E+00  1.06279E+03  9.967E-01  1.200E+01  6.000E-02  1.332E+00
   1    7    6     2     4    1.8036E+01  2.3933E-01   1.7797E+01  0.000E+00  0.000E+00  0.000E+00  1.05806E+03  9.888E-01  1.200E+01  6.000E-02  1.330E+00
   1    8    6     2     5    1.7797E+01  2.3885E-01   1.7558E+01  0.000E+00  0.000E+00  0.000E+00  1.05334E+03  9.808E-01  1.200E+01  6.000E-02  1.327E+00
   1    3    5     3     1    2.0000E+00  2.8252E-01   1.7175E+00  0.000E+00  0.000E+00  0.000E+00  1.07555E+03  1.909E+00  9.636E+00  7.227E-02  1.955E+00
   1    3    6     3     2    1.7175E+00  2.4905E-01   1.4684E+00  0.000E+00  0.000E+00  0.000E+00  1.07264E+03  1.727E+00  8.909E+00  6.682E-02  1.864E+00
   1    3    7     3     3    1.4684E+00  1.9718E-01   1.2712E+00  0.000E+00  0.000E+00  0.000E+00  1.06987E+03  1.555E+00  8.218E+00  5.547E-02  1.777E+00
   1    4    8     3     4    1.2712E+00  2.2567E-01   1.0456E+00  0.000E+00  0.000E+00  0.000E+00  1.06682E+03  1.364E+00  7.455E+00  6.709E-02  1.682E+00
   1    5    8     3     5    1.0456E+00  1.5790E-01   8.8768E-01  0.000E+00  0.000E+00  0.000E+00  1.06362E+03  1.164E+00  6.655E+00  4.991E-02  1.582E+00
   1    6    8     3     6    8.8768E-01  5.5980E-02   8.3170E-01  0.000E+00  0.000E+00  0.000E+00  1.06158E+03  1.036E+00  6.145E+00  1.844E-02  1.518E+00
   1    5   10     4     1    1.0000E+01  9.0919E-02   9.9091E+00  0.000E+00  0.000E+00  0.000E+00  1.07836E+03  6.368E-01  1.000E+01  2.500E-02  1.212E+00
   1    5    9     4     2    9.9091E+00  1.8158E-01   9.7275E+00  0.000E+00  0.000E+00  0.000E+00  1.07154E+03  6.315E-01  1.000E+01  5.000E-02  1.211E+00
   1    6    8     4     3    9.7275E+00  1.2689E-01   9.6006E+00  0.000E+00  0.000E+00  0.000E+00  1.06381E+03  6.256E-01  1.000E+01  3.500E-02  1.209E+00
   1    6    8     5     1    1.0432E+01  2.2686E-01   1.0205E+01  0.000E+00  0.000E+00  0.000E+00  1.05868E+03  6.790E-01  1.542E+01  6.166E-02  1.226E+00
   1    7    7     5     2    1.0205E+01  2.7894E-01   9.9265E+00  0.000E+00  0.000E+00  0.000E+00  1.05417E+03  6.732E-01  1.519E+01  7.594E-02  1.224E+00
   1    8    7     5     3    9.9265E+00  1.9221E-01   9.7343E+00  0.000E+00  0.000E+00  0.000E+00  1.04992E+03  6.676E-01  1.497E+01  5.241E-02  1.223E+00
   1    8    6     5     4    9.7343E+00  1.3577E-01   9.5985E+00  0.000E+00  0.000E+00  0.000E+00  1.04691E+03  6.637E-01  1.482E+01  3.706E-02  1.221E+00
   1    9    6     6     1    2.7157E+01  2.5677E-01   2.6900E+01  0.000E+00  0.000E+00  0.000E+00  1.04401E+03  1.280E+00  1.200E+01  6.000E-02  1.427E+00
   1   10    7     6     2    2.6900E+01  2.5634E-01   2.6644E+01  0.000E+00  0.000E+00  0.000E+00  1.03945E+03  1.272E+00  1.200E+01  6.000E-02  1.424E+00
   1   11    7     6     3    2.6644E+01  2.5590E-01   2.6388E+01  0.000E+00  0.000E+00  0.000E+00  1.03490E+03  1.265E+00  1.200E+01  6.000E-02  1.422E+00
   1   12    7     6     4    2.6388E+01  2.5546E-01   2.6132E+01  0.000E+00  0.000E+00  0.000E+00  1.03035E+03  1.258E+00  1.200E+01  6.000E-02  1.419E+00
   1   13    7     6     5    2.6132E+01  1.0939E-03   2.6131E+01  0.000E+00  0.000E+00  0.000E+00  1.02716E+03  1.254E+00  1.200E+01  2.400E-02  1.519E-02
   1   14    9     7     1    1.5000E+02  1.3306E+00   1.4867E+02  0.000E+00  0.000E+00  0.000E+00  1.03987E+03  2.288E+00  5.529E+01  5.593E-01  7.930E-01
   1   13    8     7     2    1.4867E+02  1.8228E+00   1.4685E+02  0.000E+00  0.000E+00  0.000E+00  1.03478E+03  2.279E+00  5.526E+01  6.148E-01  9.883E-01
   1   13    7     7     3    1.4685E+02  1.4367E+00   1.4541E+02  0.000E+00  0.000E+00  0.000E+00  1.02969E+03  2.271E+00  5.522E+01  5.585E-01  8.575E-01
   1   13    6     8     1    1.7154E+02  8.8336E-01   1.7066E+02  0.000E+00  0.000E+00  0.000E+00  1.02483E+03  2.959E+00  4.291E+01  4.373E-01  6.734E-01
   1   13    5     8     2    1.7066E+02  1.2909E-01   1.7053E+02  0.000E+00  0.000E+00  0.000E+00  1.01858E+03  2.956E+00  4.286E+01  4.368E-01  9.852E-02
   1   13    4     8     3    1.7053E+02 -2.6157E+00   1.7314E+02  0.000E+00  0.000E+00  0.000E+00  1.01234E+03  2.964E+00  4.298E+01  4.380E+00 -1.991E-01
   1   13    3     8     4    1.7314E+02 -3.7119E+00   1.7686E+02  0.000E+00  0.000E+00  0.000E+00  1.00611E+03  2.984E+00  4.327E+01  4.410E+00 -2.806E-01
   1   13    2     8     5    1.7686E+02 -2.5514E+00   1.7941E+02  0.000E+00  0.000E+00  0.000E+00  9.99879E+02  3.004E+00  4.356E+01  4.439E+00 -1.916E-01
   1   13    1     8     6    1.7941E+02 -1.9322E+00   1.8134E+02  0.000E+00  0.000E+00  0.000E+00  9.94893E+02  3.019E+00  4.377E+01  2.676E+00 -2.407E-01





UNSATURATED ZONE PACKAGE VOLUMETRIC BUDGET FOR  TIME STEP    30 STRESS PERIOD    2
  ------------------------------------------------------------------------------



     CUMULATIVE VOLUMES      L**3       RATES FOR THIS TIME STEP      L**3/T
     ------------------                 ------------------------

           IN:                                      IN:
           ---                                      ---
        INFILTRATION =     2302148.8727          INFILTRATION =           0.8475

          OUT:                                     OUT:
          ----                                     ----
              UZF ET =     1972485.7128                UZF ET =           0.7500
        UZF RECHARGE =       73224.0000          UZF RECHARGE =       0.0000E+00

            IN - OUT =      256439.1600              IN - OUT =       9.7500E-02

          STORAGE:                                 STORAGE:
          --------                                 --------
      STORAGE CHANGE =      256439.1819        STORAGE CHANGE =       9.7500E-02

 PERCENT DISCREPANCY IS DIFFERENCE BETWEEN IN-OUT MINUS CHANGE IN STORAGE
 DIVIDED BY THE AVERAGE OF IN AND OUT TIMES 100

 PERCENT DISCREPANCY =          -0.00     PERCENT DISCREPANCY =           0.00






1
  VOLUMETRIC BUDGET FOR AGRICULTURAL FIELDS AT  END OF TIME STEP   30, STRESS PERIOD   2
  ------------------------------------------------------------------------------

     CUMULATIVE VOLUMES      L**3       RATES FOR THIS TIME STEP      L**3/T
     ------------------                 ------------------------

           IN:                                      IN:
           ---                                      ---
               AG WELLS  =           0.0000                 AG WELLS  =           0.0000
      DIVERSION SEGMENTS =           0.0000        DIVERSION SEGMENTS =           0.0000
       IRRIGATION PONDS  =           0.0000         IRRIGATION PONDS  =           0.0000
           GW IRRIGATION =           0.0000             GW IRRIGATION =           0.0000
           SW IRRIGATION =           0.0000             SW IRRIGATION =           0.0000
        SYSTEM LOSSES GW =           0.0000          SYSTEM LOSSES GW =           0.0000
        SYSTEM LOSSES SW =           0.0000          SYSTEM LOSSES SW =           0.0000

                TOTAL IN =           0.0000                  TOTAL IN =           0.0000

          OUT:                                     OUT:
          ----                                     ----
               AG WELLS  =           0.0000                 AG WELLS  =           0.0000
      DIVERSION SEGMENTS =           0.0000        DIVERSION SEGMENTS =           0.0000
       IRRIGATION PONDS  =           0.0000         IRRIGATION PONDS  =           0.0000
           GW IRRIGATION =           0.0000             GW IRRIGATION =           0.0000
           SW IRRIGATION =           0.0000             SW IRRIGATION =           0.0000
        SYSTEM LOSSES GW =           0.0000          SYSTEM LOSSES GW =           0.0000
        SYSTEM LOSSES SW =           0.0000          SYSTEM LOSSES SW =           0.0000

               TOTAL OUT =           0.0000                 TOTAL OUT =           0.0000

                IN - OUT =           0.0000                  IN - OUT =           0.0000

     PERCENT DISCREPANCY =           0.00         PERCENT DISCREPANCY =           0.00



1
  VOLUMETRIC BUDGET FOR ENTIRE MODEL AT END OF TIME STEP   30, STRESS PERIOD   2
  ------------------------------------------------------------------------------

     CUMULATIVE VOLUMES      L**3       RATES FOR THIS TIME STEP      L**3/T
     ------------------                 ------------------------

           IN:                                      IN:
           ---                                      ---
             STORAGE     =     1687679.8750               STORAGE     =           0.5792
       CONSTANT HEAD     =           0.0000         CONSTANT HEAD     =           0.0000
     HEAD DEP BOUNDS     =      775205.3125       HEAD DEP BOUNDS     =           0.2854
      STREAM LEAKAGE     =    31116964.0000        STREAM LEAKAGE     =          11.4714
        UZF RECHARGE     =       73223.9531          UZF RECHARGE     =           0.0000
               GW ET     =           0.0000                 GW ET     =           0.0000
     SURFACE LEAKAGE     =           0.0000       SURFACE LEAKAGE     =           0.0000
           AG WELLS      =           0.0000             AG WELLS      =           0.0000

                TOTAL IN =    33653072.0000                  TOTAL IN =          12.3360

          OUT:                                     OUT:
          ----                                     ----
             STORAGE     =     4220740.5000               STORAGE     =           1.2356
       CONSTANT HEAD     =           0.0000         CONSTANT HEAD     =           0.0000
     HEAD DEP BOUNDS     =      783850.8125       HEAD DEP BOUNDS     =           0.2894
      STREAM LEAKAGE     =    28649202.0000        STREAM LEAKAGE     =          10.8112
        UZF RECHARGE     =           0.0000          UZF RECHARGE     =           0.0000
               GW ET     =           0.0000                 GW ET     =           0.0000
     SURFACE LEAKAGE     =           0.0000       SURFACE LEAKAGE     =           0.0000
           AG WELLS      =           0.0000             AG WELLS      =           0.0000

               TOTAL OUT =    33653792.0000                 TOTAL OUT =          12.3362

                IN - OUT =        -720.0000                  IN - OUT =      -1.8406E-04

     PERCENT DISCREPANCY =          -0.00         PERCENT DISCREPANCY =          -0.00






         TIME SUMMARY AT END OF TIME STEP   30 IN STRESS PERIOD    2
                    SECONDS     MINUTES      HOURS       DAYS        YEARS
                    -----------------------------------------------------------
   TIME STEP LENGTH  87667.      1461.1      24.352      1.0147     2.77799E-03
 STRESS PERIOD TIME 2.63000E+06  43833.      730.56      30.440     8.33397E-02
         TOTAL TIME 2.71640E+06  45273.      754.56      31.440     8.60775E-02
1
1
                            STRESS PERIOD NO.    3, LENGTH =   2630000.    
                            -----------------------------------------------

                              NUMBER OF TIME STEPS =    30

                               MULTIPLIER FOR DELT =     1.000

                            INITIAL TIME STEP SIZE =   87666.66    

 REUSING NON-PARAMETER GHB CELLS FROM LAST STRESS PERIOD

      2 GHB CELLS

 REUSING STREAM SEGMENT DATA FROM LAST STRESS PERIOD



            AREAL INFILTRATION RATE
 READING ON UNIT   19 WITH FORMAT: (FREE)              

            1           2           3           4           5           6           7           8           9          10
 ........................................................................................................................
   1   1.0000E-10  2.0000E-10   0.000       0.000       0.000       0.000       0.000       0.000       0.000       0.000    
   2   2.0000E-10  1.0000E-10  2.0000E-10   0.000       0.000      8.0000E-10  8.0000E-10  5.0000E-10   0.000       0.000    
   3    0.000      5.0000E-10  1.0000E-10  1.0000E-10  8.0000E-10  8.0000E-10  5.0000E-10  5.0000E-10   0.000       0.000    
   4   8.0000E-10  5.0000E-10  1.0000E-10  1.0000E-10  1.0000E-10  1.0000E-10  1.0000E-10  1.0000E-10  2.0000E-10   0.000    
   5   8.0000E-10  5.0000E-10  1.0000E-10  1.0000E-10  1.0000E-10  1.0000E-10  1.0000E-10  1.0000E-10  1.0000E-10  1.0000E-10
   6   8.0000E-10  5.0000E-10  5.0000E-10  2.0000E-10  2.0000E-10  1.0000E-10  1.0000E-10  1.0000E-10  1.0000E-10  5.0000E-10
   7   8.0000E-10  5.0000E-10  5.0000E-10  2.0000E-10  2.0000E-10  1.0000E-10  1.0000E-10  2.0000E-10  2.0000E-10   0.000    
   8    0.000      5.0000E-10  5.0000E-10  2.0000E-10  2.0000E-10  1.0000E-10  1.0000E-10  2.0000E-10  5.0000E-10   0.000    
   9    0.000      5.0000E-10  5.0000E-10  2.0000E-10  2.0000E-10  1.0000E-10  1.0000E-10  2.0000E-10  5.0000E-10   0.000    
  10    0.000      5.0000E-10  5.0000E-10  2.0000E-10  2.0000E-10  1.0000E-10  1.0000E-10  2.0000E-10  5.0000E-10  8.0000E-10
  11    0.000      1.0000E-10  1.0000E-10  1.0000E-10  1.0000E-10  1.0000E-10  1.0000E-10  2.0000E-10  5.0000E-10   0.000    
  12   1.0000E-10  1.0000E-10  1.0000E-10  1.0000E-10  1.0000E-10  1.0000E-10  1.0000E-10  1.0000E-10  2.0000E-10   0.000    
  13   1.0000E-10  1.0000E-10  2.0000E-10  2.0000E-10  2.0000E-10  2.0000E-10  2.0000E-10  1.0000E-10  1.0000E-10   0.000    
  14    0.000      2.0000E-10  5.0000E-10  5.0000E-10  5.0000E-10  5.0000E-10  5.0000E-10  2.0000E-10  1.0000E-10   0.000    
  15    0.000       0.000      8.0000E-10  8.0000E-10  8.0000E-10  8.0000E-10   0.000       0.000       0.000       0.000    

                  ET RATE =  5.000000E-10

 USING ET EXTINCTION DEPTH FROM PREVIOUS STRESS PERIOD. CURRENT PERIOD IS:       3

 USING EXTINCTION WATER CONTENT FROM PREVIOUS STRESS PERIOD. CURRENT PERIOD IS:       3

 USING AIR ENTRY PRESSURE FROM PREVIOUS STRESS PERIOD. CURRENT PERIOD IS:       3

 USING ROOT PRESSURE HEAD FROM PREVIOUS STRESS PERIOD. CURRENT PERIOD IS:       3

 USING ROOT ACTIVITY FROM PREVIOUS STRESS PERIOD. CURRENT PERIOD IS:       3

 PROCESSING AG STRESS PERIOD DATA

 READING AG STRESS PERIOD DATA

 READING IRRIGATION WELL

 NO IRRPOND OR REUSING IRRPOND DATA FROM LAST STRESS PERIOD

 END PROCESSING AG STRESS PERIOD DATA OPTIONS
 
 SOLVING FOR HEAD 
                                                   Max.-Head-Change                         Max.-Flux-Residual
  Residual-Control   Outer-Iter.   Inner-Iter.     Column Row Layer    Maximum-Head-Change  Column Row Layer    Maximum-Flux-Residual          L2-NORM 
          0                 1           2             2    2     1       0.4445665681E-02       2   13    1         0.2434065808E+00      0.6122455257E+00
          0                 2           2             2    2     1      -0.4324428360E-03       4   13    1        -0.2398278272E-01      0.6028171984E-01
          0                 3           1             2    2     1       0.2944774594E-04       4   13    1         0.1654169802E-02      0.4132448190E-02

    ------------------------------------------------
       NWT REQUIRED            3 OUTER ITERATIONS 
       AND A TOTAL OF          5 INNER ITERATIONS.
    ------------------------------------------------

 NO OUTPUT CONTROL FOR STRESS PERIOD    3   TIME STEP    1
 
 SOLVING FOR HEAD 
                                                   Max.-Head-Change                         Max.-Flux-Residual
  Residual-Control   Outer-Iter.   Inner-Iter.     Column Row Layer    Maximum-Head-Change  Column Row Layer    Maximum-Flux-Residual          L2-NORM 
          0                 1           2             2   13     1       0.7704236569E-02       4   13    1         0.4384290052E+00      0.9459700540E+00
          0                 2           2             4   13     1      -0.7354793080E-03       4   13    1        -0.4338100624E-01      0.9263048175E-01
          0                 3           1             4   13     1       0.4934161493E-04       4   13    1         0.2992203752E-02      0.6301590229E-02

    ------------------------------------------------
       NWT REQUIRED            3 OUTER ITERATIONS 
       AND A TOTAL OF          5 INNER ITERATIONS.
    ------------------------------------------------

 NO OUTPUT CONTROL FOR STRESS PERIOD    3   TIME STEP    2
 
 SOLVING FOR HEAD 
                                                   Max.-Head-Change                         Max.-Flux-Residual
  Residual-Control   Outer-Iter.   Inner-Iter.     Column Row Layer    Maximum-Head-Change  Column Row Layer    Maximum-Flux-Residual          L2-NORM 
          0                 1           2             2   13     1       0.7121116007E-02       2   13    1         0.4014734870E+00      0.8938701507E+00
          0                 2           2             4   13     1      -0.6667984978E-03       4   13    1        -0.3930237209E-01      0.8761659317E-01
          0                 3           1             4   13     1       0.4472164025E-04       4   13    1         0.2710095060E-02      0.5968355442E-02

    ------------------------------------------------
       NWT REQUIRED            3 OUTER ITERATIONS 
       AND A TOTAL OF          5 INNER ITERATIONS.
    ------------------------------------------------

 NO OUTPUT CONTROL FOR STRESS PERIOD    3   TIME STEP    3
 
 SOLVING FOR HEAD 
                                                   Max.-Head-Change                         Max.-Flux-Residual
  Residual-Control   Outer-Iter.   Inner-Iter.     Column Row Layer    Maximum-Head-Change  Column Row Layer    Maximum-Flux-Residual          L2-NORM 
          0                 1           2             2   13     1       0.6582771067E-02       2   13    1         0.3710762050E+00      0.8472021860E+00
          0                 2           2             2   13     1      -0.6119550272E-03       4   13    1        -0.3563253087E-01      0.8312981070E-01
          0                 3           1             4   13     1       0.4061840402E-04       4   13    1         0.2459663404E-02      0.5672207956E-02

    ------------------------------------------------
       NWT REQUIRED            3 OUTER ITERATIONS 
       AND A TOTAL OF          5 INNER ITERATIONS.
    ------------------------------------------------

 NO OUTPUT CONTROL FOR STRESS PERIOD    3   TIME STEP    4
 
 SOLVING FOR HEAD 
                                                   Max.-Head-Change                         Max.-Flux-Residual
  Residual-Control   Outer-Iter.   Inner-Iter.     Column Row Layer    Maximum-Head-Change  Column Row Layer    Maximum-Flux-Residual          L2-NORM 
          0                 1           2             2   13     1       0.6085659356E-02       2   13    1         0.3430087702E+00      0.8054123898E+00
          0                 2           2             2   13     1      -0.5659593216E-03       2   13    1        -0.3278988617E-01      0.7911483493E-01
          0                 3           1             4   13     1       0.3682881526E-04       4   13    1         0.2228417525E-02      0.5405052647E-02

    ------------------------------------------------
       NWT REQUIRED            3 OUTER ITERATIONS 
       AND A TOTAL OF          5 INNER ITERATIONS.
    ------------------------------------------------

 NO OUTPUT CONTROL FOR STRESS PERIOD    3   TIME STEP    5
 
 SOLVING FOR HEAD 
                                                   Max.-Head-Change                         Max.-Flux-Residual
  Residual-Control   Outer-Iter.   Inner-Iter.     Column Row Layer    Maximum-Head-Change  Column Row Layer    Maximum-Flux-Residual          L2-NORM 
          0                 1           2             2   13     1       0.5626667399E-02       2   13    1         0.3170952945E+00      0.7680242638E+00
          0                 2           2             2   13     1      -0.5234461168E-03       2   13    1        -0.3032250733E-01      0.7552451408E-01
          0                 3           1             2    2     1       0.3527220297E-04       4   13    1         0.2022993441E-02      0.5168065474E-02

    ------------------------------------------------
       NWT REQUIRED            3 OUTER ITERATIONS 
       AND A TOTAL OF          5 INNER ITERATIONS.
    ------------------------------------------------

 NO OUTPUT CONTROL FOR STRESS PERIOD    3   TIME STEP    6
 
 SOLVING FOR HEAD 
                                                   Max.-Head-Change                         Max.-Flux-Residual
  Residual-Control   Outer-Iter.   Inner-Iter.     Column Row Layer    Maximum-Head-Change  Column Row Layer    Maximum-Flux-Residual          L2-NORM 
          0                 1           2             2    2     1       0.5289564229E-02       2   13    1         0.2931747766E+00      0.7345799141E+00
          0                 2           2             2    2     1      -0.5145314697E-03       2   13    1        -0.2804410747E-01      0.7231677203E-01
          0                 3           1             2    2     1       0.3503767467E-04       2    2    1         0.1933947867E-02      0.4956694040E-02

    ------------------------------------------------
       NWT REQUIRED            3 OUTER ITERATIONS 
       AND A TOTAL OF          5 INNER ITERATIONS.
    ------------------------------------------------

 NO OUTPUT CONTROL FOR STRESS PERIOD    3   TIME STEP    7
 
 SOLVING FOR HEAD 
                                                   Max.-Head-Change                         Max.-Flux-Residual
  Residual-Control   Outer-Iter.   Inner-Iter.     Column Row Layer    Maximum-Head-Change  Column Row Layer    Maximum-Flux-Residual          L2-NORM 
          0                 1           2             2    2     1       0.5254573329E-02       2    2    1         0.2744371896E+00      0.7046595289E+00
          0                 2           2             2    2     1      -0.5111277889E-03       2    2    1        -0.2744379127E-01      0.6944668591E-01
          0                 3           1             2    2     1       0.3480589674E-04       2    2    1         0.1921065521E-02      0.4766061827E-02

    ------------------------------------------------
       NWT REQUIRED            3 OUTER ITERATIONS 
       AND A TOTAL OF          5 INNER ITERATIONS.
    ------------------------------------------------

 NO OUTPUT CONTROL FOR STRESS PERIOD    3   TIME STEP    8
 
 SOLVING FOR HEAD 
                                                   Max.-Head-Change                         Max.-Flux-Residual
  Residual-Control   Outer-Iter.   Inner-Iter.     Column Row Layer    Maximum-Head-Change  Column Row Layer    Maximum-Flux-Residual          L2-NORM 
          0                 1           2             2    2     1       0.5220077379E-02       2    2    1         0.2726229511E+00      0.6779042513E+00
          0                 2           2             2    2     1      -0.5077722539E-03       2    2    1        -0.2726236610E-01      0.6688215097E-01
          0                 3           1             2    2     1       0.3457739769E-04       2    2    1         0.1908365780E-02      0.4597472555E-02

    ------------------------------------------------
       NWT REQUIRED            3 OUTER ITERATIONS 
       AND A TOTAL OF          5 INNER ITERATIONS.
    ------------------------------------------------

 NO OUTPUT CONTROL FOR STRESS PERIOD    3   TIME STEP    9
 
 SOLVING FOR HEAD 
                                                   Max.-Head-Change                         Max.-Flux-Residual
  Residual-Control   Outer-Iter.   Inner-Iter.     Column Row Layer    Maximum-Head-Change  Column Row Layer    Maximum-Flux-Residual          L2-NORM 
          0                 1           2             2    2     1       0.5186068345E-02       2    2    1         0.2708343752E+00      0.6539763774E+00
          0                 2           2             2    2     1      -0.5044640829E-03       2    2    1        -0.2708350720E-01      0.6459044766E-01
          0                 3           1             2    2     1       0.3435212379E-04       2    2    1         0.1895845678E-02      0.4445989147E-02

    ------------------------------------------------
       NWT REQUIRED            3 OUTER ITERATIONS 
       AND A TOTAL OF          5 INNER ITERATIONS.
    ------------------------------------------------

 NO OUTPUT CONTROL FOR STRESS PERIOD    3   TIME STEP   10
 
 SOLVING FOR HEAD 
                                                   Max.-Head-Change                         Max.-Flux-Residual
  Residual-Control   Outer-Iter.   Inner-Iter.     Column Row Layer    Maximum-Head-Change  Column Row Layer    Maximum-Flux-Residual          L2-NORM 
          0                 1           2             2    2     1       0.5152539143E-02       2    2    1         0.2690710453E+00      0.6325566360E+00
          0                 2           2             2    2     1      -0.5012025862E-03       2    2    1        -0.2690717294E-01      0.6253767901E-01
          0                 3           1             2    2     1       0.3413002794E-04       2    2    1         0.1883502278E-02      0.4311133296E-02

    ------------------------------------------------
       NWT REQUIRED            3 OUTER ITERATIONS 
       AND A TOTAL OF          5 INNER ITERATIONS.
    ------------------------------------------------

 NO OUTPUT CONTROL FOR STRESS PERIOD    3   TIME STEP   11
 
 SOLVING FOR HEAD 
                                                   Max.-Head-Change                         Max.-Flux-Residual
  Residual-Control   Outer-Iter.   Inner-Iter.     Column Row Layer    Maximum-Head-Change  Column Row Layer    Maximum-Flux-Residual          L2-NORM 
          0                 1           2             2    2     1       0.5119394855E-02       2    2    1         0.2673280389E+00      0.6133698952E+00
          0                 2           2             2    2     1      -0.4979785322E-03       2    2    1        -0.2673287105E-01      0.6071163572E-01
          0                 3           1             2    2     1       0.3391048223E-04       2    2    1         0.1871301147E-02      0.4191269798E-02

    ------------------------------------------------
       NWT REQUIRED            3 OUTER ITERATIONS 
       AND A TOTAL OF          5 INNER ITERATIONS.
    ------------------------------------------------

 NO OUTPUT CONTROL FOR STRESS PERIOD    3   TIME STEP   12
 
 SOLVING FOR HEAD 
                                                   Max.-Head-Change                         Max.-Flux-Residual
  Residual-Control   Outer-Iter.   Inner-Iter.     Column Row Layer    Maximum-Head-Change  Column Row Layer    Maximum-Flux-Residual          L2-NORM 
          0                 1           2             2    2     1       0.5086715757E-02       2    2    1         0.2656095450E+00      0.5961584188E+00
          0                 2           2             2    2     1      -0.4947997283E-03       2    2    1        -0.2656102045E-01      0.5904977948E-01
          0                 3           1             2    2     1       0.3369401707E-04       2    2    1         0.1859271595E-02      0.4081499007E-02

    ------------------------------------------------
       NWT REQUIRED            3 OUTER ITERATIONS 
       AND A TOTAL OF          5 INNER ITERATIONS.
    ------------------------------------------------

 NO OUTPUT CONTROL FOR STRESS PERIOD    3   TIME STEP   13
 
 SOLVING FOR HEAD 
                                                   Max.-Head-Change                         Max.-Flux-Residual
  Residual-Control   Outer-Iter.   Inner-Iter.     Column Row Layer    Maximum-Head-Change  Column Row Layer    Maximum-Flux-Residual          L2-NORM 
          0                 1           2             2    2     1       0.5054494337E-02       2    2    1         0.2639151707E+00      0.5807046243E+00
          0                 2           2             2    2     1      -0.4916654455E-03       2    2    1        -0.2639158186E-01      0.5756991012E-01
          0                 3           1             2    2     1       0.3348058464E-04       2    2    1         0.1847410915E-02      0.3983815897E-02

    ------------------------------------------------
       NWT REQUIRED            3 OUTER ITERATIONS 
       AND A TOTAL OF          5 INNER ITERATIONS.
    ------------------------------------------------

 NO OUTPUT CONTROL FOR STRESS PERIOD    3   TIME STEP   14
 
 SOLVING FOR HEAD 
                                                   Max.-Head-Change                         Max.-Flux-Residual
  Residual-Control   Outer-Iter.   Inner-Iter.     Column Row Layer    Maximum-Head-Change  Column Row Layer    Maximum-Flux-Residual          L2-NORM 
          0                 1           2             2    2     1       0.5022723616E-02       2    2    1         0.2622445265E+00      0.5668094060E+00
          0                 2           2             2    2     1      -0.4885750030E-03       2    2    1        -0.2622451628E-01      0.5627838584E-01
          0                 3           1             2    2     1       0.3327013690E-04       2    2    1         0.1835716316E-02      0.3898383444E-02

    ------------------------------------------------
       NWT REQUIRED            3 OUTER ITERATIONS 
       AND A TOTAL OF          5 INNER ITERATIONS.
    ------------------------------------------------

 NO OUTPUT CONTROL FOR STRESS PERIOD    3   TIME STEP   15
 
 SOLVING FOR HEAD 
                                                   Max.-Head-Change                         Max.-Flux-Residual
  Residual-Control   Outer-Iter.   Inner-Iter.     Column Row Layer    Maximum-Head-Change  Column Row Layer    Maximum-Flux-Residual          L2-NORM 
          0                 1           2             2    2     1       0.4991309182E-02       2    2    1         0.2605926946E+00      0.5542622262E+00
          0                 2           2             2    2     1      -0.4855192184E-03       2    2    1        -0.2605933196E-01      0.5503358270E-01
          0                 3           1             2    2     1       0.3306204974E-04       2    2    1         0.1824153431E-02      0.3816271281E-02

    ------------------------------------------------
       NWT REQUIRED            3 OUTER ITERATIONS 
       AND A TOTAL OF          5 INNER ITERATIONS.
    ------------------------------------------------

 NO OUTPUT CONTROL FOR STRESS PERIOD    3   TIME STEP   16
 
 SOLVING FOR HEAD 
                                                   Max.-Head-Change                         Max.-Flux-Residual
  Residual-Control   Outer-Iter.   Inner-Iter.     Column Row Layer    Maximum-Head-Change  Column Row Layer    Maximum-Flux-Residual          L2-NORM 
          0                 1           2             2    2     1       0.4960331782E-02       2    2    1         0.2589638916E+00      0.5429245627E+00
          0                 2           2             2    2     1      -0.4825059453E-03       2    2    1        -0.2589645056E-01      0.5394713495E-01
          0                 3           1             2    2     1       0.3285685709E-04       2    2    1         0.1812751733E-02      0.3744482199E-02

    ------------------------------------------------
       NWT REQUIRED            3 OUTER ITERATIONS 
       AND A TOTAL OF          5 INNER ITERATIONS.
    ------------------------------------------------

 NO OUTPUT CONTROL FOR STRESS PERIOD    3   TIME STEP   17
 
 SOLVING FOR HEAD 
                                                   Max.-Head-Change                         Max.-Flux-Residual
  Residual-Control   Outer-Iter.   Inner-Iter.     Column Row Layer    Maximum-Head-Change  Column Row Layer    Maximum-Flux-Residual          L2-NORM 
          0                 1           2             2    2     1       0.4929772652E-02       2    2    1         0.2573571140E+00      0.5326599068E+00
          0                 2           2             2    2     1      -0.4795333590E-03       2    2    1        -0.2573577174E-01      0.5295842599E-01
          0                 3           1             2    2     1       0.3265443493E-04       2    2    1         0.1801504216E-02      0.3678790106E-02

    ------------------------------------------------
       NWT REQUIRED            3 OUTER ITERATIONS 
       AND A TOTAL OF          5 INNER ITERATIONS.
    ------------------------------------------------

 NO OUTPUT CONTROL FOR STRESS PERIOD    3   TIME STEP   18
 
 SOLVING FOR HEAD 
                                                   Max.-Head-Change                         Max.-Flux-Residual
  Residual-Control   Outer-Iter.   Inner-Iter.     Column Row Layer    Maximum-Head-Change  Column Row Layer    Maximum-Flux-Residual          L2-NORM 
          0                 1           2             2    2     1       0.4899649628E-02       2    2    1         0.2557732919E+00      0.5233496146E+00
          0                 2           2             2    2     1      -0.4766031949E-03       2    2    1        -0.2557738850E-01      0.5206214990E-01
          0                 3           1             2    2     1       0.3245490185E-04       2    2    1         0.1790417400E-02      0.3619044209E-02

    ------------------------------------------------
       NWT REQUIRED            3 OUTER ITERATIONS 
       AND A TOTAL OF          5 INNER ITERATIONS.
    ------------------------------------------------

 NO OUTPUT CONTROL FOR STRESS PERIOD    3   TIME STEP   19
 
 SOLVING FOR HEAD 
                                                   Max.-Head-Change                         Max.-Flux-Residual
  Residual-Control   Outer-Iter.   Inner-Iter.     Column Row Layer    Maximum-Head-Change  Column Row Layer    Maximum-Flux-Residual          L2-NORM 
          0                 1           2             2    2     1       0.4869944072E-02       2    2    1         0.2542114471E+00      0.5148873513E+00
          0                 2           2             2    2     1      -0.4737136383E-03       2    2    1        -0.2542120297E-01      0.5124834463E-01
          0                 3           1             2    2     1       0.3225813430E-04       2    2    1         0.1779484424E-02      0.3565790053E-02

    ------------------------------------------------
       NWT REQUIRED            3 OUTER ITERATIONS 
       AND A TOTAL OF          5 INNER ITERATIONS.
    ------------------------------------------------

 NO OUTPUT CONTROL FOR STRESS PERIOD    3   TIME STEP   20
 
 SOLVING FOR HEAD 
                                                   Max.-Head-Change                         Max.-Flux-Residual
  Residual-Control   Outer-Iter.   Inner-Iter.     Column Row Layer    Maximum-Head-Change  Column Row Layer    Maximum-Flux-Residual          L2-NORM 
          0                 1           2             2    2     1       0.4840561362E-02       2    2    1         0.2526666908E+00      0.5071626870E+00
          0                 2           2             2    2     1      -0.4708554865E-03       2    2    1        -0.2526672634E-01      0.5050284684E-01
          0                 3           1             2    2     1       0.3206350461E-04       2    2    1         0.1768671057E-02      0.3515593970E-02

    ------------------------------------------------
       NWT REQUIRED            3 OUTER ITERATIONS 
       AND A TOTAL OF          5 INNER ITERATIONS.
    ------------------------------------------------

 NO OUTPUT CONTROL FOR STRESS PERIOD    3   TIME STEP   21
 
 SOLVING FOR HEAD 
                                                   Max.-Head-Change                         Max.-Flux-Residual
  Residual-Control   Outer-Iter.   Inner-Iter.     Column Row Layer    Maximum-Head-Change  Column Row Layer    Maximum-Flux-Residual          L2-NORM 
          0                 1           2             2    2     1       0.4811583257E-02       2    2    1         0.2511432303E+00      0.5000938558E+00
          0                 2           2             2    2     1      -0.4680366927E-03       2    2    1        -0.2511437933E-01      0.4982047152E-01
          0                 3           1             2    2     1       0.3187155549E-04       2    2    1         0.1758006783E-02      0.3470295644E-02

    ------------------------------------------------
       NWT REQUIRED            3 OUTER ITERATIONS 
       AND A TOTAL OF          5 INNER ITERATIONS.
    ------------------------------------------------

 NO OUTPUT CONTROL FOR STRESS PERIOD    3   TIME STEP   22
 
 SOLVING FOR HEAD 
                                                   Max.-Head-Change                         Max.-Flux-Residual
  Residual-Control   Outer-Iter.   Inner-Iter.     Column Row Layer    Maximum-Head-Change  Column Row Layer    Maximum-Flux-Residual          L2-NORM 
          0                 1           2             2    2     1       0.4783004025E-02       2    2    1         0.2496407482E+00      0.4936157491E+00
          0                 2           2             2    2     1      -0.4652566981E-03       2    2    1        -0.2496413015E-01      0.4919383296E-01
          0                 3           1             2    2     1       0.3168224811E-04       2    2    1         0.1747489336E-02      0.3428262926E-02

    ------------------------------------------------
       NWT REQUIRED            3 OUTER ITERATIONS 
       AND A TOTAL OF          5 INNER ITERATIONS.
    ------------------------------------------------

 NO OUTPUT CONTROL FOR STRESS PERIOD    3   TIME STEP   23
 
 SOLVING FOR HEAD 
                                                   Max.-Head-Change                         Max.-Flux-Residual
  Residual-Control   Outer-Iter.   Inner-Iter.     Column Row Layer    Maximum-Head-Change  Column Row Layer    Maximum-Flux-Residual          L2-NORM 
          0                 1           2             2    2     1       0.4754729767E-02       2    2    1         0.2481543900E+00      0.4876501811E+00
          0                 2           2             2    2     1      -0.4625063699E-03       2    2    1        -0.2481549341E-01      0.4861554892E-01
          0                 3           1             2    2     1       0.3149496122E-04       2    2    1         0.1737084769E-02      0.3388977220E-02

    ------------------------------------------------
       NWT REQUIRED            3 OUTER ITERATIONS 
       AND A TOTAL OF          5 INNER ITERATIONS.
    ------------------------------------------------

 NO OUTPUT CONTROL FOR STRESS PERIOD    3   TIME STEP   24
 
 SOLVING FOR HEAD 
                                                   Max.-Head-Change                         Max.-Flux-Residual
  Residual-Control   Outer-Iter.   Inner-Iter.     Column Row Layer    Maximum-Head-Change  Column Row Layer    Maximum-Flux-Residual          L2-NORM 
          0                 1           2             2    2     1       0.4726929664E-02       2    2    1         0.2466929588E+00      0.4821482297E+00
          0                 2           2             2    2     1      -0.4598021640E-03       2    2    1        -0.2466934935E-01      0.4808260813E-01
          0                 3           1             2    2     1       0.3131081497E-04       2    2    1         0.1726854702E-02      0.3353867408E-02

    ------------------------------------------------
       NWT REQUIRED            3 OUTER ITERATIONS 
       AND A TOTAL OF          5 INNER ITERATIONS.
    ------------------------------------------------

 NO OUTPUT CONTROL FOR STRESS PERIOD    3   TIME STEP   25
 
 SOLVING FOR HEAD 
                                                   Max.-Head-Change                         Max.-Flux-Residual
  Residual-Control   Outer-Iter.   Inner-Iter.     Column Row Layer    Maximum-Head-Change  Column Row Layer    Maximum-Flux-Residual          L2-NORM 
          0                 1           2             2    2     1       0.4699422109E-02       2    2    1         0.2452469973E+00      0.4770443241E+00
          0                 2           2             2    2     1      -0.4571264158E-03       2    2    1        -0.2452475232E-01      0.4758682230E-01
          0                 3           1             2    2     1       0.3112860661E-04       2    2    1         0.1716732915E-02      0.3320418831E-02

    ------------------------------------------------
       NWT REQUIRED            3 OUTER ITERATIONS 
       AND A TOTAL OF          5 INNER ITERATIONS.
    ------------------------------------------------

 NO OUTPUT CONTROL FOR STRESS PERIOD    3   TIME STEP   26
 
 SOLVING FOR HEAD 
                                                   Max.-Head-Change                         Max.-Flux-Residual
  Residual-Control   Outer-Iter.   Inner-Iter.     Column Row Layer    Maximum-Head-Change  Column Row Layer    Maximum-Flux-Residual          L2-NORM 
          0                 1           2             2    2     1       0.4672289699E-02       2    2    1         0.2438207614E+00      0.4723081616E+00
          0                 2           2             2    2     1      -0.4544871587E-03       2    2    1        -0.2438212787E-01      0.4712612502E-01
          0                 3           1             2    2     1       0.3094888285E-04       2    2    1         0.1706749196E-02      0.3289575135E-02

    ------------------------------------------------
       NWT REQUIRED            3 OUTER ITERATIONS 
       AND A TOTAL OF          5 INNER ITERATIONS.
    ------------------------------------------------

 NO OUTPUT CONTROL FOR STRESS PERIOD    3   TIME STEP   27
 
 SOLVING FOR HEAD 
                                                   Max.-Head-Change                         Max.-Flux-Residual
  Residual-Control   Outer-Iter.   Inner-Iter.     Column Row Layer    Maximum-Head-Change  Column Row Layer    Maximum-Flux-Residual          L2-NORM 
          0                 1           2             2    2     1       0.4645526144E-02       2    2    1         0.2424139765E+00      0.4678977553E+00
          0                 2           2             2    2     1      -0.4518837821E-03       2    2    1        -0.2424144853E-01      0.4669652224E-01
          0                 3           1             2    2     1       0.3077160297E-04       2    2    1         0.1696901650E-02      0.3260244196E-02

    ------------------------------------------------
       NWT REQUIRED            3 OUTER ITERATIONS 
       AND A TOTAL OF          5 INNER ITERATIONS.
    ------------------------------------------------

 NO OUTPUT CONTROL FOR STRESS PERIOD    3   TIME STEP   28
 
 SOLVING FOR HEAD 
                                                   Max.-Head-Change                         Max.-Flux-Residual
  Residual-Control   Outer-Iter.   Inner-Iter.     Column Row Layer    Maximum-Head-Change  Column Row Layer    Maximum-Flux-Residual          L2-NORM 
          0                 1           2             2    2     1       0.4619039161E-02       2    2    1         0.2410217582E+00      0.4637720365E+00
          0                 2           2             2    2     1      -0.4493073081E-03       2    2    1        -0.2410222587E-01      0.4629390755E-01
          0                 3           1             2    2     1       0.3059615494E-04       2    2    1         0.1687156063E-02      0.3232881662E-02

    ------------------------------------------------
       NWT REQUIRED            3 OUTER ITERATIONS 
       AND A TOTAL OF          5 INNER ITERATIONS.
    ------------------------------------------------

 NO OUTPUT CONTROL FOR STRESS PERIOD    3   TIME STEP   29
 
 SOLVING FOR HEAD 
                                                   Max.-Head-Change                         Max.-Flux-Residual
  Residual-Control   Outer-Iter.   Inner-Iter.     Column Row Layer    Maximum-Head-Change  Column Row Layer    Maximum-Flux-Residual          L2-NORM 
          0                 1           2             4   13     1       0.1233764563E-01       4   13    1         0.7106704833E+00      0.1463898461E+01
          0                 2           2             4   13     1      -0.1186826200E-02       4   13    1        -0.7028944927E-01      0.1429498830E+00
          0                 3           1             4   13     1       0.7957052562E-04       4   13    1         0.4845160211E-02      0.9686687205E-02

    ------------------------------------------------
       NWT REQUIRED            3 OUTER ITERATIONS 
       AND A TOTAL OF          5 INNER ITERATIONS.
    ------------------------------------------------

 NO OUTPUT CONTROL FOR STRESS PERIOD    3   TIME STEP   30



 STREAM LISTING     PERIOD      3   STEP       30

 LAYER ROW COL. STREAM  RCH.  FLOW INTO     FLOW TO   FLOW OUT OF   OVRLND.     DIRECT     STREAM       STREAM     STREAM     STREAM   STREAMBED  STREAMBED
                SEG.NO.  NO.  STRM. RCH.    AQUIFER    STRM. RCH.    RUNOFF     PRECIP       ET          HEAD       DEPTH      WIDTH   CONDCTNC.   GRADIENT

   1    1    1     1     1    7.2502E+01  4.1419E-01   7.2087E+01  0.000E+00  0.000E+00  0.000E+00  1.09472E+03  1.670E+00  1.971E+01  8.868E-02  1.557E+00
   1    2    2     1     2    7.2087E+01  6.4160E-01   7.1446E+01  0.000E+00  0.000E+00  0.000E+00  1.08972E+03  1.665E+00  1.965E+01  1.375E-01  1.555E+00
   1    3    3     1     3    7.1446E+01  5.4733E-01   7.0899E+01  0.000E+00  0.000E+00  0.000E+00  1.08408E+03  1.658E+00  1.958E+01  1.175E-01  1.553E+00
   1    3    4     1     4    7.0899E+01  5.0414E-01   7.0394E+01  0.000E+00  0.000E+00  0.000E+00  1.07906E+03  1.652E+00  1.953E+01  1.084E-01  1.551E+00
   1    4    5     2     1    6.8394E+01  4.0598E-01   6.7988E+01  0.000E+00  0.000E+00  0.000E+00  1.07414E+03  2.205E+00  1.200E+01  7.800E-02  1.735E+00
   1    5    6     2     2    6.7988E+01  3.1187E-01   6.7677E+01  0.000E+00  0.000E+00  0.000E+00  1.06871E+03  2.198E+00  1.200E+01  6.000E-02  1.733E+00
   1    6    6     2     3    6.7677E+01  3.1151E-01   6.7365E+01  0.000E+00  0.000E+00  0.000E+00  1.06398E+03  2.192E+00  1.200E+01  6.000E-02  1.731E+00
   1    7    6     2     4    6.7365E+01  3.1115E-01   6.7054E+01  0.000E+00  0.000E+00  0.000E+00  1.05926E+03  2.186E+00  1.200E+01  6.000E-02  1.729E+00
   1    8    6     2     5    6.7054E+01  3.1078E-01   6.6743E+01  0.000E+00  0.000E+00  0.000E+00  1.05454E+03  2.180E+00  1.200E+01  6.000E-02  1.727E+00
   1    3    5     3     1    2.0000E+00  2.8252E-01   1.7175E+00  0.000E+00  0.000E+00  0.000E+00  1.07555E+03  1.909E+00  9.636E+00  7.227E-02  1.955E+00
   1    3    6     3     2    1.7175E+00  2.4905E-01   1.4684E+00  0.000E+00  0.000E+00  0.000E+00  1.07264E+03  1.727E+00  8.909E+00  6.682E-02  1.864E+00
   1    3    7     3     3    1.4684E+00  1.9718E-01   1.2712E+00  0.000E+00  0.000E+00  0.000E+00  1.06987E+03  1.555E+00  8.218E+00  5.547E-02  1.777E+00
   1    4    8     3     4    1.2712E+00  2.2567E-01   1.0456E+00  0.000E+00  0.000E+00  0.000E+00  1.06682E+03  1.364E+00  7.455E+00  6.709E-02  1.682E+00
   1    5    8     3     5    1.0456E+00  1.5790E-01   8.8768E-01  0.000E+00  0.000E+00  0.000E+00  1.06362E+03  1.164E+00  6.655E+00  4.991E-02  1.582E+00
   1    6    8     3     6    8.8768E-01  5.5980E-02   8.3170E-01  0.000E+00  0.000E+00  0.000E+00  1.06158E+03  1.036E+00  6.145E+00  1.844E-02  1.518E+00
   1    5   10     4     1    1.0000E+01  9.0919E-02   9.9091E+00  0.000E+00  0.000E+00  0.000E+00  1.07836E+03  6.368E-01  1.000E+01  2.500E-02  1.212E+00
   1    5    9     4     2    9.9091E+00  1.8158E-01   9.7275E+00  0.000E+00  0.000E+00  0.000E+00  1.07154E+03  6.315E-01  1.000E+01  5.000E-02  1.211E+00
   1    6    8     4     3    9.7275E+00  1.2689E-01   9.6006E+00  0.000E+00  0.000E+00  0.000E+00  1.06381E+03  6.256E-01  1.000E+01  3.500E-02  1.209E+00
   1    6    8     5     1    1.0432E+01  2.2686E-01   1.0205E+01  0.000E+00  0.000E+00  0.000E+00  1.05868E+03  6.790E-01  1.542E+01  6.166E-02  1.226E+00
   1    7    7     5     2    1.0205E+01  2.7894E-01   9.9265E+00  0.000E+00  0.000E+00  0.000E+00  1.05417E+03  6.732E-01  1.519E+01  7.594E-02  1.224E+00
   1    8    7     5     3    9.9265E+00  1.9221E-01   9.7343E+00  0.000E+00  0.000E+00  0.000E+00  1.04992E+03  6.676E-01  1.497E+01  5.241E-02  1.223E+00
   1    8    6     5     4    9.7343E+00  1.3577E-01   9.5985E+00  0.000E+00  0.000E+00  0.000E+00  1.04691E+03  6.637E-01  1.482E+01  3.706E-02  1.221E+00
   1    9    6     6     1    7.6342E+01  3.2296E-01   7.6019E+01  0.000E+00  0.000E+00  0.000E+00  1.04511E+03  2.383E+00  1.200E+01  6.000E-02  1.794E+00
   1   10    7     6     2    7.6019E+01  3.2260E-01   7.5696E+01  0.000E+00  0.000E+00  0.000E+00  1.04056E+03  2.377E+00  1.200E+01  6.000E-02  1.792E+00
   1   11    7     6     3    7.5696E+01  3.2224E-01   7.5374E+01  0.000E+00  0.000E+00  0.000E+00  1.03601E+03  2.371E+00  1.200E+01  6.000E-02  1.790E+00
   1   12    7     6     4    7.5374E+01  3.2187E-01   7.5052E+01  0.000E+00  0.000E+00  0.000E+00  1.03146E+03  2.365E+00  1.200E+01  6.000E-02  1.788E+00
   1   13    7     6     5    7.5052E+01  2.7035E-02   7.5025E+01  0.000E+00  0.000E+00  0.000E+00  1.02827E+03  2.361E+00  1.200E+01  2.400E-02  3.755E-01
   1   14    9     7     1    1.5000E+02  1.3312E+00   1.4867E+02  0.000E+00  0.000E+00  0.000E+00  1.03987E+03  2.288E+00  5.529E+01  5.593E-01  7.933E-01
   1   13    8     7     2    1.4867E+02  1.8193E+00   1.4685E+02  0.000E+00  0.000E+00  0.000E+00  1.03478E+03  2.279E+00  5.526E+01  6.148E-01  9.864E-01
   1   13    7     7     3    1.4685E+02  1.4219E+00   1.4543E+02  0.000E+00  0.000E+00  0.000E+00  1.02969E+03  2.271E+00  5.522E+01  5.585E-01  8.487E-01
   1   13    6     8     1    2.2045E+02  1.0869E+00   2.1937E+02  0.000E+00  0.000E+00  0.000E+00  1.02513E+03  3.251E+00  4.715E+01  4.804E-01  7.541E-01
   1   13    5     8     2    2.1937E+02  2.5867E-01   2.1911E+02  0.000E+00  0.000E+00  0.000E+00  1.01887E+03  3.248E+00  4.709E+01  4.799E-01  1.797E-01
   1   13    4     8     3    2.1911E+02 -1.9098E+00   2.2102E+02  0.000E+00  0.000E+00  0.000E+00  1.01263E+03  3.252E+00  4.716E+01  4.806E+00 -1.325E-01
   1   13    3     8     4    2.2102E+02 -3.1179E+00   2.2413E+02  0.000E+00  0.000E+00  0.000E+00  1.00639E+03  3.266E+00  4.736E+01  4.826E+00 -2.154E-01
   1   13    2     8     5    2.2413E+02 -1.9270E+00   2.2606E+02  0.000E+00  0.000E+00  0.000E+00  1.00015E+03  3.280E+00  4.756E+01  4.846E+00 -1.325E-01
   1   13    1     8     6    2.2606E+02 -1.5653E+00   2.2763E+02  0.000E+00  0.000E+00  0.000E+00  9.95164E+02  3.289E+00  4.770E+01  2.916E+00 -1.789E-01





UNSATURATED ZONE PACKAGE VOLUMETRIC BUDGET FOR  TIME STEP    30 STRESS PERIOD    3
  ------------------------------------------------------------------------------



     CUMULATIVE VOLUMES      L**3       RATES FOR THIS TIME STEP      L**3/T
     ------------------                 ------------------------

           IN:                                      IN:
           ---                                      ---
        INFILTRATION =     4531073.7455          INFILTRATION =           0.8475

          OUT:                                     OUT:
          ----                                     ----
              UZF ET =     3944985.5897                UZF ET =           0.7500
        UZF RECHARGE =       73224.0000          UZF RECHARGE =       0.0000E+00

            IN - OUT =      512864.1558              IN - OUT =       9.7500E-02

          STORAGE:                                 STORAGE:
          --------                                 --------
      STORAGE CHANGE =      512864.1946        STORAGE CHANGE =       9.7500E-02

 PERCENT DISCREPANCY IS DIFFERENCE BETWEEN IN-OUT MINUS CHANGE IN STORAGE
 DIVIDED BY THE AVERAGE OF IN AND OUT TIMES 100

 PERCENT DISCREPANCY =          -0.00     PERCENT DISCREPANCY =           0.00






1
  VOLUMETRIC BUDGET FOR AGRICULTURAL FIELDS AT  END OF TIME STEP   30, STRESS PERIOD   3
  ------------------------------------------------------------------------------

     CUMULATIVE VOLUMES      L**3       RATES FOR THIS TIME STEP      L**3/T
     ------------------                 ------------------------

           IN:                                      IN:
           ---                                      ---
               AG WELLS  =           0.0000                 AG WELLS  =           0.0000
      DIVERSION SEGMENTS =           0.0000        DIVERSION SEGMENTS =           0.0000
       IRRIGATION PONDS  =           0.0000         IRRIGATION PONDS  =           0.0000
           GW IRRIGATION =           0.0000             GW IRRIGATION =           0.0000
           SW IRRIGATION =           0.0000             SW IRRIGATION =           0.0000
        SYSTEM LOSSES GW =           0.0000          SYSTEM LOSSES GW =           0.0000
        SYSTEM LOSSES SW =           0.0000          SYSTEM LOSSES SW =           0.0000

                TOTAL IN =           0.0000                  TOTAL IN =           0.0000

          OUT:                                     OUT:
          ----                                     ----
               AG WELLS  =           0.0000                 AG WELLS  =           0.0000
      DIVERSION SEGMENTS =           0.0000        DIVERSION SEGMENTS =           0.0000
       IRRIGATION PONDS  =           0.0000         IRRIGATION PONDS  =           0.0000
           GW IRRIGATION =           0.0000             GW IRRIGATION =           0.0000
           SW IRRIGATION =           0.0000             SW IRRIGATION =           0.0000
        SYSTEM LOSSES GW =           0.0000          SYSTEM LOSSES GW =           0.0000
        SYSTEM LOSSES SW =           0.0000          SYSTEM LOSSES SW =           0.0000

               TOTAL OUT =           0.0000                 TOTAL OUT =           0.0000

                IN - OUT =           0.0000                  IN - OUT =           0.0000

     PERCENT DISCREPANCY =           0.00         PERCENT DISCREPANCY =           0.00



1
  VOLUMETRIC BUDGET FOR ENTIRE MODEL AT END OF TIME STEP   30, STRESS PERIOD   3
  ------------------------------------------------------------------------------

     CUMULATIVE VOLUMES      L**3       RATES FOR THIS TIME STEP      L**3/T
     ------------------                 ------------------------

           IN:                                      IN:
           ---                                      ---
             STORAGE     =     3047020.0000               STORAGE     =           0.4724
       CONSTANT HEAD     =           0.0000         CONSTANT HEAD     =           0.0000
     HEAD DEP BOUNDS     =     1525869.2500       HEAD DEP BOUNDS     =           0.2854
      STREAM LEAKAGE     =    63536340.0000        STREAM LEAKAGE     =          13.3947
        UZF RECHARGE     =       73223.9531          UZF RECHARGE     =           0.0000
               GW ET     =           0.0000                 GW ET     =           0.0000
     SURFACE LEAKAGE     =           0.0000       SURFACE LEAKAGE     =           0.0000
           AG WELLS      =           0.0000             AG WELLS      =           0.0000

                TOTAL IN =    68182456.0000                  TOTAL IN =          14.1525

          OUT:                                     OUT:
          ----                                     ----
             STORAGE     =    11250393.0000               STORAGE     =           5.3403
       CONSTANT HEAD     =           0.0000         CONSTANT HEAD     =           0.0000
     HEAD DEP BOUNDS     =     1549889.6250       HEAD DEP BOUNDS     =           0.2926
      STREAM LEAKAGE     =    55383872.0000        STREAM LEAKAGE     =           8.5200
        UZF RECHARGE     =           0.0000          UZF RECHARGE     =           0.0000
               GW ET     =         620.0424                 GW ET     =       9.2744E-04
     SURFACE LEAKAGE     =           0.0000       SURFACE LEAKAGE     =           0.0000
           AG WELLS      =           0.0000             AG WELLS      =           0.0000

               TOTAL OUT =    68184776.0000                 TOTAL OUT =          14.1539

                IN - OUT =       -2320.0000                  IN - OUT =      -1.3819E-03

     PERCENT DISCREPANCY =          -0.00         PERCENT DISCREPANCY =          -0.01






         TIME SUMMARY AT END OF TIME STEP   30 IN STRESS PERIOD    3
                    SECONDS     MINUTES      HOURS       DAYS        YEARS
                    -----------------------------------------------------------
   TIME STEP LENGTH  87667.      1461.1      24.352      1.0147     2.77799E-03
 STRESS PERIOD TIME 2.63000E+06  43833.      730.56      30.440     8.33397E-02
         TOTAL TIME 5.34640E+06  89107.      1485.1      61.880     0.16942    
1
1
                            STRESS PERIOD NO.    4, LENGTH =   2630000.    
                            -----------------------------------------------

                              NUMBER OF TIME STEPS =    30

                               MULTIPLIER FOR DELT =     1.000

                            INITIAL TIME STEP SIZE =   87666.66    

 REUSING NON-PARAMETER GHB CELLS FROM LAST STRESS PERIOD

      2 GHB CELLS

 REUSING STREAM SEGMENT DATA FROM LAST STRESS PERIOD



            AREAL INFILTRATION RATE
 READING ON UNIT   19 WITH FORMAT: (FREE)              

            1           2           3           4           5           6           7           8           9          10
 ........................................................................................................................
   1   1.0000E-10  2.0000E-10   0.000       0.000       0.000       0.000       0.000       0.000       0.000       0.000    
   2   2.0000E-10  1.0000E-10  2.0000E-10   0.000       0.000      8.0000E-10  8.0000E-10  5.0000E-10   0.000       0.000    
   3    0.000      5.0000E-10  1.0000E-10  1.0000E-10  8.0000E-10  8.0000E-10  5.0000E-10  5.0000E-10   0.000       0.000    
   4   8.0000E-10  5.0000E-10  1.0000E-10  1.0000E-10  1.0000E-10  1.0000E-10  1.0000E-10  1.0000E-10  2.0000E-10   0.000    
   5   8.0000E-10  5.0000E-10  1.0000E-10  1.0000E-10  1.0000E-10  1.0000E-10  1.0000E-10  1.0000E-10  1.0000E-10  1.0000E-10
   6   8.0000E-10  5.0000E-10  5.0000E-10  2.0000E-10  2.0000E-10  1.0000E-10  1.0000E-10  1.0000E-10  1.0000E-10  5.0000E-10
   7   8.0000E-10  5.0000E-10  5.0000E-10  2.0000E-10  2.0000E-10  1.0000E-10  1.0000E-10  2.0000E-10  2.0000E-10   0.000    
   8    0.000      5.0000E-10  5.0000E-10  2.0000E-10  2.0000E-10  1.0000E-10  1.0000E-10  2.0000E-10  5.0000E-10   0.000    
   9    0.000      5.0000E-10  5.0000E-10  2.0000E-10  2.0000E-10  1.0000E-10  1.0000E-10  2.0000E-10  5.0000E-10   0.000    
  10    0.000      5.0000E-10  5.0000E-10  2.0000E-10  2.0000E-10  1.0000E-10  1.0000E-10  2.0000E-10  5.0000E-10  8.0000E-10
  11    0.000      1.0000E-10  1.0000E-10  1.0000E-10  1.0000E-10  1.0000E-10  1.0000E-10  2.0000E-10  5.0000E-10   0.000    
  12   1.0000E-10  1.0000E-10  1.0000E-10  1.0000E-10  1.0000E-10  1.0000E-10  1.0000E-10  1.0000E-10  2.0000E-10   0.000    
  13   1.0000E-10  1.0000E-10  2.0000E-10  2.0000E-10  2.0000E-10  2.0000E-10  2.0000E-10  1.0000E-10  1.0000E-10   0.000    
  14    0.000      2.0000E-10  5.0000E-10  5.0000E-10  5.0000E-10  5.0000E-10  5.0000E-10  2.0000E-10  1.0000E-10   0.000    
  15    0.000       0.000      8.0000E-10  8.0000E-10  8.0000E-10  8.0000E-10   0.000       0.000       0.000       0.000    

                  ET RATE =  5.000000E-10

 USING ET EXTINCTION DEPTH FROM PREVIOUS STRESS PERIOD. CURRENT PERIOD IS:       4

 USING EXTINCTION WATER CONTENT FROM PREVIOUS STRESS PERIOD. CURRENT PERIOD IS:       4

 USING AIR ENTRY PRESSURE FROM PREVIOUS STRESS PERIOD. CURRENT PERIOD IS:       4

 USING ROOT PRESSURE HEAD FROM PREVIOUS STRESS PERIOD. CURRENT PERIOD IS:       4

 USING ROOT ACTIVITY FROM PREVIOUS STRESS PERIOD. CURRENT PERIOD IS:       4

 PROCESSING AG STRESS PERIOD DATA

 READING AG STRESS PERIOD DATA

 READING IRRIGATION WELL

 NO IRRPOND OR REUSING IRRPOND DATA FROM LAST STRESS PERIOD

 END PROCESSING AG STRESS PERIOD DATA OPTIONS
 
 SOLVING FOR HEAD 
                                                   Max.-Head-Change                         Max.-Flux-Residual
  Residual-Control   Outer-Iter.   Inner-Iter.     Column Row Layer    Maximum-Head-Change  Column Row Layer    Maximum-Flux-Residual          L2-NORM 
          0                 1           2             2   13     1       0.1291413105E-01       4   13    1         0.7419812521E+00      0.1544937432E+01
          0                 2           2             4   13     1      -0.1238689241E-02       4   13    1        -0.7337512502E-01      0.1508203518E+00
          0                 3           1             4   13     1       0.8303623635E-04       4   13    1         0.5057149048E-02      0.1021565672E-01

    ------------------------------------------------
       NWT REQUIRED            3 OUTER ITERATIONS 
       AND A TOTAL OF          5 INNER ITERATIONS.
    ------------------------------------------------

 NO OUTPUT CONTROL FOR STRESS PERIOD    4   TIME STEP    1
 
 SOLVING FOR HEAD 
                                                   Max.-Head-Change                         Max.-Flux-Residual
  Residual-Control   Outer-Iter.   Inner-Iter.     Column Row Layer    Maximum-Head-Change  Column Row Layer    Maximum-Flux-Residual          L2-NORM 
          0                 1           2             2   13     1       0.1188957217E-01       2   13    1         0.6731438975E+00      0.1450617595E+01
          0                 2           2             4   13     1      -0.1118360924E-02       4   13    1        -0.6619835348E-01      0.1417646948E+00
          0                 3           1             4   13     1       0.7495805359E-04       4   13    1         0.4561744948E-02      0.9616320345E-02

    ------------------------------------------------
       NWT REQUIRED            3 OUTER ITERATIONS 
       AND A TOTAL OF          5 INNER ITERATIONS.
    ------------------------------------------------

 NO OUTPUT CONTROL FOR STRESS PERIOD    4   TIME STEP    2
 
 SOLVING FOR HEAD 
                                                   Max.-Head-Change                         Max.-Flux-Residual
  Residual-Control   Outer-Iter.   Inner-Iter.     Column Row Layer    Maximum-Head-Change  Column Row Layer    Maximum-Flux-Residual          L2-NORM 
          0                 1           2             2   13     1       0.1094717591E-01       2   13    1         0.6197103808E+00      0.1366416375E+01
          0                 2           2             2   13     1      -0.1014811276E-02       4   13    1        -0.5976397477E-01      0.1336864762E+00
          0                 3           1             4   13     1       0.6770784447E-04       4   13    1         0.4117268517E-02      0.9081414540E-02

    ------------------------------------------------
       NWT REQUIRED            3 OUTER ITERATIONS 
       AND A TOTAL OF          5 INNER ITERATIONS.
    ------------------------------------------------

 NO OUTPUT CONTROL FOR STRESS PERIOD    4   TIME STEP    3
 
 SOLVING FOR HEAD 
                                                   Max.-Head-Change                         Max.-Flux-Residual
  Residual-Control   Outer-Iter.   Inner-Iter.     Column Row Layer    Maximum-Head-Change  Column Row Layer    Maximum-Flux-Residual          L2-NORM 
          0                 1           2             2   13     1       0.1008040427E-01       2   13    1         0.5705670595E+00      0.1291316495E+01
          0                 2           2             2   13     1      -0.9348884669E-03       2   13    1        -0.5439292097E-01      0.1264892270E+00
          0                 3           1             4   13     1       0.6122246052E-04       4   13    1         0.3719823681E-02      0.8608628623E-02

    ------------------------------------------------
       NWT REQUIRED            3 OUTER ITERATIONS 
       AND A TOTAL OF          5 INNER ITERATIONS.
    ------------------------------------------------

 NO OUTPUT CONTROL FOR STRESS PERIOD    4   TIME STEP    4
 
 SOLVING FOR HEAD 
                                                   Max.-Head-Change                         Max.-Flux-Residual
  Residual-Control   Outer-Iter.   Inner-Iter.     Column Row Layer    Maximum-Head-Change  Column Row Layer    Maximum-Flux-Residual          L2-NORM 
          0                 1           2             2   13     1       0.9283195946E-02       2   13    1         0.5253700035E+00      0.1224401648E+01
          0                 2           2             2   13     1      -0.8613134277E-03       2   13    1        -0.5010484111E-01      0.1200821886E+00
          0                 3           1             4   13     1       0.5536976647E-04       4   13    1         0.3361296243E-02      0.8186363434E-02

    ------------------------------------------------
       NWT REQUIRED            3 OUTER ITERATIONS 
       AND A TOTAL OF          5 INNER ITERATIONS.
    ------------------------------------------------

 NO OUTPUT CONTROL FOR STRESS PERIOD    4   TIME STEP    5
 
 SOLVING FOR HEAD 
                                                   Max.-Head-Change                         Max.-Flux-Residual
  Residual-Control   Outer-Iter.   Inner-Iter.     Column Row Layer    Maximum-Head-Change  Column Row Layer    Maximum-Flux-Residual          L2-NORM 
          0                 1           2             2   13     1       0.8549982382E-02       2   13    1         0.4838033738E+00      0.1164812725E+01
          0                 2           2             2   13     1      -0.7935767138E-03       2   13    1        -0.4615729613E-01      0.1143789820E+00
          0                 3           1             2    2     1       0.5140191765E-04       4   13    1         0.3042030727E-02      0.7810865033E-02

    ------------------------------------------------
       NWT REQUIRED            3 OUTER ITERATIONS 
       AND A TOTAL OF          5 INNER ITERATIONS.
    ------------------------------------------------

 NO OUTPUT CONTROL FOR STRESS PERIOD    4   TIME STEP    6
 
 SOLVING FOR HEAD 
                                                   Max.-Head-Change                         Max.-Flux-Residual
  Residual-Control   Outer-Iter.   Inner-Iter.     Column Row Layer    Maximum-Head-Change  Column Row Layer    Maximum-Flux-Residual          L2-NORM 
          0                 1           2             2   13     1       0.7875635615E-02       2   13    1         0.4455762207E+00      0.1111788117E+01
          0                 2           2             2    2     1      -0.7501962444E-03       2   13    1        -0.4252496570E-01      0.1093102995E+00
          0                 3           1             2    2     1       0.5108556099E-04       2    2    1         0.2818321282E-02      0.7479447193E-02

    ------------------------------------------------
       NWT REQUIRED            3 OUTER ITERATIONS 
       AND A TOTAL OF          5 INNER ITERATIONS.
    ------------------------------------------------

 NO OUTPUT CONTROL FOR STRESS PERIOD    4   TIME STEP    7
 
 SOLVING FOR HEAD 
                                                   Max.-Head-Change                         Max.-Flux-Residual
  Residual-Control   Outer-Iter.   Inner-Iter.     Column Row Layer    Maximum-Head-Change  Column Row Layer    Maximum-Flux-Residual          L2-NORM 
          0                 1           2             2    2     1       0.7665180149E-02       2   13    1         0.4104178963E+00      0.1064627682E+01
          0                 2           2             2    2     1      -0.7456152152E-03       2    2    1        -0.4001410610E-01      0.1048035406E+00
          0                 3           1             2    2     1       0.5077361047E-04       2    2    1         0.2800987254E-02      0.7181804452E-02

    ------------------------------------------------
       NWT REQUIRED            3 OUTER ITERATIONS 
       AND A TOTAL OF          5 INNER ITERATIONS.
    ------------------------------------------------

 NO OUTPUT CONTROL FOR STRESS PERIOD    4   TIME STEP    8
 
 SOLVING FOR HEAD 
                                                   Max.-Head-Change                         Max.-Flux-Residual
  Residual-Control   Outer-Iter.   Inner-Iter.     Column Row Layer    Maximum-Head-Change  Column Row Layer    Maximum-Flux-Residual          L2-NORM 
          0                 1           2             2    2     1       0.7618653527E-02       2    2    1         0.3976932591E+00      0.1022690756E+01
          0                 2           2             2    2     1      -0.7410894055E-03       2    2    1        -0.3976946956E-01      0.1007990217E+00
          0                 3           1             2    2     1       0.5046541974E-04       2    2    1         0.2783862710E-02      0.6920138988E-02

    ------------------------------------------------
       NWT REQUIRED            3 OUTER ITERATIONS 
       AND A TOTAL OF          5 INNER ITERATIONS.
    ------------------------------------------------

 NO OUTPUT CONTROL FOR STRESS PERIOD    4   TIME STEP    9
 
 SOLVING FOR HEAD 
                                                   Max.-Head-Change                         Max.-Flux-Residual
  Residual-Control   Outer-Iter.   Inner-Iter.     Column Row Layer    Maximum-Head-Change  Column Row Layer    Maximum-Flux-Residual          L2-NORM 
          0                 1           2             2    2     1       0.7572771998E-02       2    2    1         0.3952809119E+00      0.9853859217E+00
          0                 2           2             2    2     1      -0.7366263461E-03       2    2    1        -0.3952823235E-01      0.9723779676E-01
          0                 3           1             2    2     1       0.5016150262E-04       2    2    1         0.2766976125E-02      0.6686661370E-02

    ------------------------------------------------
       NWT REQUIRED            3 OUTER ITERATIONS 
       AND A TOTAL OF          5 INNER ITERATIONS.
    ------------------------------------------------

 NO OUTPUT CONTROL FOR STRESS PERIOD    4   TIME STEP   10
 
 SOLVING FOR HEAD 
                                                   Max.-Head-Change                         Max.-Flux-Residual
  Residual-Control   Outer-Iter.   Inner-Iter.     Column Row Layer    Maximum-Head-Change  Column Row Layer    Maximum-Flux-Residual          L2-NORM 
          0                 1           2             2    2     1       0.7527438415E-02       2    2    1         0.3928974512E+00      0.9522086195E+00
          0                 2           2             2    2     1      -0.7322165879E-03       2    2    1        -0.3928988386E-01      0.9407442193E-01
          0                 3           1             2    2     1       0.4986121465E-04       2    2    1         0.2750291742E-02      0.6480220108E-02

    ------------------------------------------------
       NWT REQUIRED            3 OUTER ITERATIONS 
       AND A TOTAL OF          5 INNER ITERATIONS.
    ------------------------------------------------

 NO OUTPUT CONTROL FOR STRESS PERIOD    4   TIME STEP   11
 
 SOLVING FOR HEAD 
                                                   Max.-Head-Change                         Max.-Flux-Residual
  Residual-Control   Outer-Iter.   Inner-Iter.     Column Row Layer    Maximum-Head-Change  Column Row Layer    Maximum-Flux-Residual          L2-NORM 
          0                 1           2             2    2     1       0.7482730567E-02       2    2    1         0.3905469615E+00      0.9226724002E+00
          0                 2           2             2    2     1      -0.7278676983E-03       2    2    1        -0.3905483255E-01      0.9125245422E-01
          0                 3           1             2    2     1       0.4956507178E-04       2    2    1         0.2733838181E-02      0.6293858838E-02

    ------------------------------------------------
       NWT REQUIRED            3 OUTER ITERATIONS 
       AND A TOTAL OF          5 INNER ITERATIONS.
    ------------------------------------------------

 NO OUTPUT CONTROL FOR STRESS PERIOD    4   TIME STEP   12
 
 SOLVING FOR HEAD 
                                                   Max.-Head-Change                         Max.-Flux-Residual
  Residual-Control   Outer-Iter.   Inner-Iter.     Column Row Layer    Maximum-Head-Change  Column Row Layer    Maximum-Flux-Residual          L2-NORM 
          0                 1           2             2    2     1       0.7438639243E-02       2    2    1         0.3882289155E+00      0.8963546746E+00
          0                 2           2             2    2     1      -0.7235787796E-03       2    2    1        -0.3882302563E-01      0.8873998229E-01
          0                 3           1             2    2     1       0.4927301246E-04       2    2    1         0.2717611696E-02      0.6129109247E-02

    ------------------------------------------------
       NWT REQUIRED            3 OUTER ITERATIONS 
       AND A TOTAL OF          5 INNER ITERATIONS.
    ------------------------------------------------

 NO OUTPUT CONTROL FOR STRESS PERIOD    4   TIME STEP   13
 
 SOLVING FOR HEAD 
                                                   Max.-Head-Change                         Max.-Flux-Residual
  Residual-Control   Outer-Iter.   Inner-Iter.     Column Row Layer    Maximum-Head-Change  Column Row Layer    Maximum-Flux-Residual          L2-NORM 
          0                 1           2             2    2     1       0.7395067000E-02       2    2    1         0.3859382739E+00      0.8728756651E+00
          0                 2           2             2    2     1      -0.7193403546E-03       2    2    1        -0.3859395922E-01      0.8649883991E-01
          0                 3           1             2    2     1       0.4898439225E-04       2    2    1         0.2701577077E-02      0.5982566824E-02

    ------------------------------------------------
       NWT REQUIRED            3 OUTER ITERATIONS 
       AND A TOTAL OF          5 INNER ITERATIONS.
    ------------------------------------------------

 NO OUTPUT CONTROL FOR STRESS PERIOD    4   TIME STEP   14
 
 SOLVING FOR HEAD 
                                                   Max.-Head-Change                         Max.-Flux-Residual
  Residual-Control   Outer-Iter.   Inner-Iter.     Column Row Layer    Maximum-Head-Change  Column Row Layer    Maximum-Flux-Residual          L2-NORM 
          0                 1           2             2    2     1       0.7352092877E-02       2    2    1         0.3836791074E+00      0.8518992279E+00
          0                 2           2             2    2     1      -0.7151601104E-03       2    2    1        -0.3836804036E-01      0.8449516983E-01
          0                 3           1             2    2     1       0.4869973300E-04       2    2    1         0.2685762742E-02      0.5850921715E-02

    ------------------------------------------------
       NWT REQUIRED            3 OUTER ITERATIONS 
       AND A TOTAL OF          5 INNER ITERATIONS.
    ------------------------------------------------

 NO OUTPUT CONTROL FOR STRESS PERIOD    4   TIME STEP   15
 
 SOLVING FOR HEAD 
                                                   Max.-Head-Change                         Max.-Flux-Residual
  Residual-Control   Outer-Iter.   Inner-Iter.     Column Row Layer    Maximum-Head-Change  Column Row Layer    Maximum-Flux-Residual          L2-NORM 
          0                 1           2             2    2     1       0.7309707386E-02       2    2    1         0.3814509527E+00      0.8331308043E+00
          0                 2           2             2    2     1      -0.7110371259E-03       2    2    1        -0.3814522275E-01      0.8270125421E-01
          0                 3           1             2    2     1       0.4841897365E-04       2    2    1         0.2670165547E-02      0.5732928996E-02

    ------------------------------------------------
       NWT REQUIRED            3 OUTER ITERATIONS 
       AND A TOTAL OF          5 INNER ITERATIONS.
    ------------------------------------------------

 NO OUTPUT CONTROL FOR STRESS PERIOD    4   TIME STEP   16
 
 SOLVING FOR HEAD 
                                                   Max.-Head-Change                         Max.-Flux-Residual
  Residual-Control   Outer-Iter.   Inner-Iter.     Column Row Layer    Maximum-Head-Change  Column Row Layer    Maximum-Flux-Residual          L2-NORM 
          0                 1           2             2    2     1       0.7267901193E-02       2    2    1         0.3792533180E+00      0.8162933339E+00
          0                 2           2             2    2     1      -0.7069704912E-03       2    2    1        -0.3792545717E-01      0.8109099676E-01
          0                 3           1             2    2     1       0.4814205101E-04       2    2    1         0.2654781959E-02      0.5626617733E-02

    ------------------------------------------------
       NWT REQUIRED            3 OUTER ITERATIONS 
       AND A TOTAL OF          5 INNER ITERATIONS.
    ------------------------------------------------

 NO OUTPUT CONTROL FOR STRESS PERIOD    4   TIME STEP   17
 
 SOLVING FOR HEAD 
                                                   Max.-Head-Change                         Max.-Flux-Residual
  Residual-Control   Outer-Iter.   Inner-Iter.     Column Row Layer    Maximum-Head-Change  Column Row Layer    Maximum-Flux-Residual          L2-NORM 
          0                 1           2             2    2     1       0.7226578172E-02       2    2    1         0.3770811567E+00      0.8011510196E+00
          0                 2           2             2    2     1      -0.7029508572E-03       2    2    1        -0.3770823899E-01      0.7964094587E-01
          0                 3           1             2    2     1       0.4786832938E-04       2    2    1         0.2639576710E-02      0.5530374964E-02

    ------------------------------------------------
       NWT REQUIRED            3 OUTER ITERATIONS 
       AND A TOTAL OF          5 INNER ITERATIONS.
    ------------------------------------------------

 NO OUTPUT CONTROL FOR STRESS PERIOD    4   TIME STEP   18
 
 SOLVING FOR HEAD 
                                                   Max.-Head-Change                         Max.-Flux-Residual
  Residual-Control   Outer-Iter.   Inner-Iter.     Column Row Layer    Maximum-Head-Change  Column Row Layer    Maximum-Flux-Residual          L2-NORM 
          0                 1           2             2    2     1       0.7185817265E-02       2    2    1         0.3749386096E+00      0.7875070807E+00
          0                 2           2             2    2     1      -0.6989859016E-03       2    2    1        -0.3749398224E-01      0.7833244869E-01
          0                 3           1             2    2     1       0.4759833085E-04       2    2    1         0.2624578747E-02      0.5444985998E-02

    ------------------------------------------------
       NWT REQUIRED            3 OUTER ITERATIONS 
       AND A TOTAL OF          5 INNER ITERATIONS.
    ------------------------------------------------

 NO OUTPUT CONTROL FOR STRESS PERIOD    4   TIME STEP   19
 
 SOLVING FOR HEAD 
                                                   Max.-Head-Change                         Max.-Flux-Residual
  Residual-Control   Outer-Iter.   Inner-Iter.     Column Row Layer    Maximum-Head-Change  Column Row Layer    Maximum-Flux-Residual          L2-NORM 
          0                 1           2             2    2     1       0.7145522291E-02       2    2    1         0.3728206444E+00      0.7751640381E+00
          0                 2           2             2    2     1      -0.6950662697E-03       2    2    1        -0.3728218377E-01      0.7714839937E-01
          0                 3           1             2    2     1       0.4733141879E-04       2    2    1         0.2609752867E-02      0.5367207211E-02

    ------------------------------------------------
       NWT REQUIRED            3 OUTER ITERATIONS 
       AND A TOTAL OF          5 INNER ITERATIONS.
    ------------------------------------------------

 NO OUTPUT CONTROL FOR STRESS PERIOD    4   TIME STEP   20
 
 SOLVING FOR HEAD 
                                                   Max.-Head-Change                         Max.-Flux-Residual
  Residual-Control   Outer-Iter.   Inner-Iter.     Column Row Layer    Maximum-Head-Change  Column Row Layer    Maximum-Flux-Residual          L2-NORM 
          0                 1           2             2    2     1       0.7105773300E-02       2    2    1         0.3707314001E+00      0.7639715191E+00
          0                 2           2             2    2     1      -0.6911997478E-03       2    2    1        -0.3707325742E-01      0.7607292350E-01
          0                 3           1             2    2     1       0.4706812308E-04       2    2    1         0.2595128025E-02      0.5295794772E-02

    ------------------------------------------------
       NWT REQUIRED            3 OUTER ITERATIONS 
       AND A TOTAL OF          5 INNER ITERATIONS.
    ------------------------------------------------

 NO OUTPUT CONTROL FOR STRESS PERIOD    4   TIME STEP   21
 
 SOLVING FOR HEAD 
                                                   Max.-Head-Change                         Max.-Flux-Residual
  Residual-Control   Outer-Iter.   Inner-Iter.     Column Row Layer    Maximum-Head-Change  Column Row Layer    Maximum-Flux-Residual          L2-NORM 
          0                 1           2             2    2     1       0.7066561230E-02       2    2    1         0.3686704645E+00      0.7538013715E+00
          0                 2           2             2    2     1      -0.6873854543E-03       2    2    1        -0.3686716198E-01      0.7509358564E-01
          0                 3           1             2    2     1       0.4680838387E-04       2    2    1         0.2580701352E-02      0.5230264135E-02

    ------------------------------------------------
       NWT REQUIRED            3 OUTER ITERATIONS 
       AND A TOTAL OF          5 INNER ITERATIONS.
    ------------------------------------------------

 NO OUTPUT CONTROL FOR STRESS PERIOD    4   TIME STEP   22
 
 SOLVING FOR HEAD 
                                                   Max.-Head-Change                         Max.-Flux-Residual
  Residual-Control   Outer-Iter.   Inner-Iter.     Column Row Layer    Maximum-Head-Change  Column Row Layer    Maximum-Flux-Residual          L2-NORM 
          0                 1           2             2    2     1       0.7027877987E-02       2    2    1         0.3666373675E+00      0.7445172419E+00
          0                 2           2             2    2     1      -0.6836226020E-03       2    2    1        -0.3666385046E-01      0.7419858236E-01
          0                 3           1             2    2     1       0.4655214790E-04       2    2    1         0.2566469565E-02      0.5170843974E-02

    ------------------------------------------------
       NWT REQUIRED            3 OUTER ITERATIONS 
       AND A TOTAL OF          5 INNER ITERATIONS.
    ------------------------------------------------

 NO OUTPUT CONTROL FOR STRESS PERIOD    4   TIME STEP   23
 
 SOLVING FOR HEAD 
                                                   Max.-Head-Change                         Max.-Flux-Residual
  Residual-Control   Outer-Iter.   Inner-Iter.     Column Row Layer    Maximum-Head-Change  Column Row Layer    Maximum-Flux-Residual          L2-NORM 
          0                 1           2             2    2     1       0.6989628346E-02       2    2    1         0.3646271258E+00      0.7360064727E+00
          0                 2           2             2    2     1      -0.6799019274E-03       2    2    1        -0.3646282446E-01      0.7337677730E-01
          0                 3           1             2    2     1       0.4629878443E-04       2    2    1         0.2552397754E-02      0.5116010268E-02

    ------------------------------------------------
       NWT REQUIRED            3 OUTER ITERATIONS 
       AND A TOTAL OF          5 INNER ITERATIONS.
    ------------------------------------------------

 NO OUTPUT CONTROL FOR STRESS PERIOD    4   TIME STEP   24
 
 SOLVING FOR HEAD 
                                                   Max.-Head-Change                         Max.-Flux-Residual
  Residual-Control   Outer-Iter.   Inner-Iter.     Column Row Layer    Maximum-Head-Change  Column Row Layer    Maximum-Flux-Residual          L2-NORM 
          0                 1           2             2    2     1       0.6951891723E-02       2    2    1         0.3626439295E+00      0.7282353465E+00
          0                 2           2             2    2     1      -0.6762311565E-03       2    2    1        -0.3626450309E-01      0.7266293533E-01
          0                 3           1             2    2     1       0.4604881816E-04       2    2    1         0.2538515255E-02      0.5068451543E-02

    ------------------------------------------------
       NWT REQUIRED            3 OUTER ITERATIONS 
       AND A TOTAL OF          5 INNER ITERATIONS.
    ------------------------------------------------

 NO OUTPUT CONTROL FOR STRESS PERIOD    4   TIME STEP   25
 
 SOLVING FOR HEAD 
                                                   Max.-Head-Change                         Max.-Flux-Residual
  Residual-Control   Outer-Iter.   Inner-Iter.     Column Row Layer    Maximum-Head-Change  Column Row Layer    Maximum-Flux-Residual          L2-NORM 
          0                 1           2             2    2     1       0.6914661186E-02       2    2    1         0.3606873325E+00      0.7209916419E+00
          0                 2           2             2    2     1      -0.6726096147E-03       2    2    1        -0.3606884166E-01      0.7192333673E-01
          0                 3           1             2    2     1       0.4580220556E-04       2    2    1         0.2524818991E-02      0.5018235406E-02

    ------------------------------------------------
       NWT REQUIRED            3 OUTER ITERATIONS 
       AND A TOTAL OF          5 INNER ITERATIONS.
    ------------------------------------------------

 NO OUTPUT CONTROL FOR STRESS PERIOD    4   TIME STEP   26
 
 SOLVING FOR HEAD 
                                                   Max.-Head-Change                         Max.-Flux-Residual
  Residual-Control   Outer-Iter.   Inner-Iter.     Column Row Layer    Maximum-Head-Change  Column Row Layer    Maximum-Flux-Residual          L2-NORM 
          0                 1           2             2    2     1       0.6877928001E-02       2    2    1         0.3587569756E+00      0.7143399451E+00
          0                 2           2             2    2     1      -0.6690364519E-03       2    2    1        -0.3587580429E-01      0.7127828719E-01
          0                 3           1             2    2     1       0.4555888627E-04       2    2    1         0.2511306377E-02      0.4975225555E-02

    ------------------------------------------------
       NWT REQUIRED            3 OUTER ITERATIONS 
       AND A TOTAL OF          5 INNER ITERATIONS.
    ------------------------------------------------

 NO OUTPUT CONTROL FOR STRESS PERIOD    4   TIME STEP   27
 
 SOLVING FOR HEAD 
                                                   Max.-Head-Change                         Max.-Flux-Residual
  Residual-Control   Outer-Iter.   Inner-Iter.     Column Row Layer    Maximum-Head-Change  Column Row Layer    Maximum-Flux-Residual          L2-NORM 
          0                 1           2             2    2     1       0.6841597461E-02       2    2    1         0.3568478411E+00      0.7081476763E+00
          0                 2           2             2    2     1      -0.6655024563E-03       2    2    1        -0.3568488919E-01      0.7067605873E-01
          0                 3           1             2    2     1       0.4531823475E-04       2    2    1         0.2497942334E-02      0.4934765017E-02

    ------------------------------------------------
       NWT REQUIRED            3 OUTER ITERATIONS 
       AND A TOTAL OF          5 INNER ITERATIONS.
    ------------------------------------------------

 NO OUTPUT CONTROL FOR STRESS PERIOD    4   TIME STEP   28
 
 SOLVING FOR HEAD 
                                                   Max.-Head-Change                         Max.-Flux-Residual
  Residual-Control   Outer-Iter.   Inner-Iter.     Column Row Layer    Maximum-Head-Change  Column Row Layer    Maximum-Flux-Residual          L2-NORM 
          0                 1           2             2    2     1       0.6805750264E-02       2    2    1         0.3549641477E+00      0.7023919443E+00
          0                 2           2             2    2     1      -0.6620154769E-03       2    2    1        -0.3549651825E-01      0.7011604376E-01
          0                 3           1             2    2     1       0.4508078472E-04       2    2    1         0.2484756360E-02      0.4896947319E-02

    ------------------------------------------------
       NWT REQUIRED            3 OUTER ITERATIONS 
       AND A TOTAL OF          5 INNER ITERATIONS.
    ------------------------------------------------

 NO OUTPUT CONTROL FOR STRESS PERIOD    4   TIME STEP   29
 
 SOLVING FOR HEAD 
                                                   Max.-Head-Change                         Max.-Flux-Residual
  Residual-Control   Outer-Iter.   Inner-Iter.     Column Row Layer    Maximum-Head-Change  Column Row Layer    Maximum-Flux-Residual          L2-NORM 
          0                 1           2             2    2     1       0.5350702448E-02       2    2    1         0.2788864307E+00      0.6872008857E+00
          0                 2           2             2    2     1      -0.5204783137E-03       2    2    1        -0.2788870101E-01      0.6809490129E-01
          0                 3           1             2    2     1       0.3544263518E-04       2    2    1         0.1952209375E-02      0.4709533947E-02

    ------------------------------------------------
       NWT REQUIRED            3 OUTER ITERATIONS 
       AND A TOTAL OF          5 INNER ITERATIONS.
    ------------------------------------------------

 NO OUTPUT CONTROL FOR STRESS PERIOD    4   TIME STEP   30



 STREAM LISTING     PERIOD      4   STEP       30

 LAYER ROW COL. STREAM  RCH.  FLOW INTO     FLOW TO   FLOW OUT OF   OVRLND.     DIRECT     STREAM       STREAM     STREAM     STREAM   STREAMBED  STREAMBED
                SEG.NO.  NO.  STRM. RCH.    AQUIFER    STRM. RCH.    RUNOFF     PRECIP       ET          HEAD       DEPTH      WIDTH   CONDCTNC.   GRADIENT

   1    1    1     1     1    6.2247E+01  3.7977E-01   6.1867E+01  0.000E+00  0.000E+00  0.000E+00  1.09460E+03  1.553E+00  1.854E+01  8.342E-02  1.518E+00
   1    2    2     1     2    6.1867E+01  5.8816E-01   6.1279E+01  0.000E+00  0.000E+00  0.000E+00  1.08961E+03  1.547E+00  1.848E+01  1.294E-01  1.516E+00
   1    3    3     1     3    6.1279E+01  5.0162E-01   6.0777E+01  0.000E+00  0.000E+00  0.000E+00  1.08396E+03  1.540E+00  1.841E+01  1.105E-01  1.513E+00
   1    3    4     1     4    6.0777E+01  4.6193E-01   6.0316E+01  0.000E+00  0.000E+00  0.000E+00  1.07894E+03  1.534E+00  1.836E+01  1.019E-01  1.511E+00
   1    4    5     2     1    5.8316E+01  3.9026E-01   5.7925E+01  0.000E+00  0.000E+00  0.000E+00  1.07394E+03  2.003E+00  1.200E+01  7.800E-02  1.668E+00
   1    5    6     2     2    5.7925E+01  2.9977E-01   5.7626E+01  0.000E+00  0.000E+00  0.000E+00  1.06851E+03  1.996E+00  1.200E+01  6.000E-02  1.665E+00
   1    6    6     2     3    5.7626E+01  2.9940E-01   5.7326E+01  0.000E+00  0.000E+00  0.000E+00  1.06378E+03  1.990E+00  1.200E+01  6.000E-02  1.663E+00
   1    7    6     2     4    5.7326E+01  2.9902E-01   5.7027E+01  0.000E+00  0.000E+00  0.000E+00  1.05906E+03  1.984E+00  1.200E+01  6.000E-02  1.661E+00
   1    8    6     2     5    5.7027E+01  2.9865E-01   5.6728E+01  0.000E+00  0.000E+00  0.000E+00  1.05434E+03  1.977E+00  1.200E+01  6.000E-02  1.659E+00
   1    3    5     3     1    2.0000E+00  2.8252E-01   1.7175E+00  0.000E+00  0.000E+00  0.000E+00  1.07555E+03  1.909E+00  9.636E+00  7.227E-02  1.955E+00
   1    3    6     3     2    1.7175E+00  2.4905E-01   1.4684E+00  0.000E+00  0.000E+00  0.000E+00  1.07264E+03  1.727E+00  8.909E+00  6.682E-02  1.864E+00
   1    3    7     3     3    1.4684E+00  1.9718E-01   1.2712E+00  0.000E+00  0.000E+00  0.000E+00  1.06987E+03  1.555E+00  8.218E+00  5.547E-02  1.777E+00
   1    4    8     3     4    1.2712E+00  2.2567E-01   1.0456E+00  0.000E+00  0.000E+00  0.000E+00  1.06682E+03  1.364E+00  7.455E+00  6.709E-02  1.682E+00
   1    5    8     3     5    1.0456E+00  1.5790E-01   8.8768E-01  0.000E+00  0.000E+00  0.000E+00  1.06362E+03  1.164E+00  6.655E+00  4.991E-02  1.582E+00
   1    6    8     3     6    8.8768E-01  5.5980E-02   8.3170E-01  0.000E+00  0.000E+00  0.000E+00  1.06158E+03  1.036E+00  6.145E+00  1.844E-02  1.518E+00
   1    5   10     4     1    1.0000E+01  9.0919E-02   9.9091E+00  0.000E+00  0.000E+00  0.000E+00  1.07836E+03  6.368E-01  1.000E+01  2.500E-02  1.212E+00
   1    5    9     4     2    9.9091E+00  1.8158E-01   9.7275E+00  0.000E+00  0.000E+00  0.000E+00  1.07154E+03  6.315E-01  1.000E+01  5.000E-02  1.211E+00
   1    6    8     4     3    9.7275E+00  1.2689E-01   9.6006E+00  0.000E+00  0.000E+00  0.000E+00  1.06381E+03  6.256E-01  1.000E+01  3.500E-02  1.209E+00
   1    6    8     5     1    1.0432E+01  2.2686E-01   1.0205E+01  0.000E+00  0.000E+00  0.000E+00  1.05868E+03  6.790E-01  1.542E+01  6.166E-02  1.226E+00
   1    7    7     5     2    1.0205E+01  2.7894E-01   9.9265E+00  0.000E+00  0.000E+00  0.000E+00  1.05417E+03  6.732E-01  1.519E+01  7.594E-02  1.224E+00
   1    8    7     5     3    9.9265E+00  1.9221E-01   9.7343E+00  0.000E+00  0.000E+00  0.000E+00  1.04992E+03  6.676E-01  1.497E+01  5.241E-02  1.223E+00
   1    8    6     5     4    9.7343E+00  1.3577E-01   9.5985E+00  0.000E+00  0.000E+00  0.000E+00  1.04691E+03  6.637E-01  1.482E+01  3.706E-02  1.221E+00
   1    9    6     6     1    6.6327E+01  3.1138E-01   6.6016E+01  0.000E+00  0.000E+00  0.000E+00  1.04492E+03  2.190E+00  1.200E+01  6.000E-02  1.730E+00
   1   10    7     6     2    6.6016E+01  3.1101E-01   6.5705E+01  0.000E+00  0.000E+00  0.000E+00  1.04037E+03  2.183E+00  1.200E+01  6.000E-02  1.728E+00
   1   11    7     6     3    6.5705E+01  3.1064E-01   6.5394E+01  0.000E+00  0.000E+00  0.000E+00  1.03581E+03  2.177E+00  1.200E+01  6.000E-02  1.726E+00
   1   12    7     6     4    6.5394E+01  3.1026E-01   6.5084E+01  0.000E+00  0.000E+00  0.000E+00  1.03126E+03  2.171E+00  1.200E+01  6.000E-02  1.724E+00
   1   13    7     6     5    6.5084E+01  2.1634E-02   6.5062E+01  0.000E+00  0.000E+00  0.000E+00  1.02808E+03  2.168E+00  1.200E+01  2.400E-02  3.005E-01
   1   14    9     7     1    1.5000E+02  1.3316E+00   1.4867E+02  0.000E+00  0.000E+00  0.000E+00  1.03987E+03  2.288E+00  5.529E+01  5.593E-01  7.936E-01
   1   13    8     7     2    1.4867E+02  1.8148E+00   1.4685E+02  0.000E+00  0.000E+00  0.000E+00  1.03478E+03  2.279E+00  5.526E+01  6.148E-01  9.840E-01
   1   13    7     7     3    1.4685E+02  1.4044E+00   1.4545E+02  0.000E+00  0.000E+00  0.000E+00  1.02969E+03  2.271E+00  5.522E+01  5.585E-01  8.382E-01
   1   13    6     8     1    2.1051E+02  1.0054E+00   2.0951E+02  0.000E+00  0.000E+00  0.000E+00  1.02507E+03  3.196E+00  4.634E+01  4.722E-01  7.097E-01
   1   13    5     8     2    2.0951E+02  1.9100E-01   2.0931E+02  0.000E+00  0.000E+00  0.000E+00  1.01882E+03  3.192E+00  4.629E+01  4.717E-01  1.350E-01
   1   13    4     8     3    2.0931E+02 -2.6809E+00   2.1200E+02  0.000E+00  0.000E+00  0.000E+00  1.01257E+03  3.199E+00  4.639E+01  4.727E+00 -1.890E-01
   1   13    3     8     4    2.1200E+02 -3.8539E+00   2.1585E+02  0.000E+00  0.000E+00  0.000E+00  1.00634E+03  3.218E+00  4.666E+01  4.755E+00 -2.702E-01
   1   13    2     8     5    2.1585E+02 -2.7437E+00   2.1859E+02  0.000E+00  0.000E+00  0.000E+00  1.00011E+03  3.236E+00  4.693E+01  4.782E+00 -1.912E-01
   1   13    1     8     6    2.1859E+02 -2.0240E+00   2.2062E+02  0.000E+00  0.000E+00  0.000E+00  9.95125E+02  3.250E+00  4.712E+01  2.881E+00 -2.342E-01





UNSATURATED ZONE PACKAGE VOLUMETRIC BUDGET FOR  TIME STEP    30 STRESS PERIOD    4
  ------------------------------------------------------------------------------



     CUMULATIVE VOLUMES      L**3       RATES FOR THIS TIME STEP      L**3/T
     ------------------                 ------------------------

           IN:                                      IN:
           ---                                      ---
        INFILTRATION =     6759998.6182          INFILTRATION =           0.8475

          OUT:                                     OUT:
          ----                                     ----
              UZF ET =     5917485.4539                UZF ET =           0.7500
        UZF RECHARGE =       73224.0000          UZF RECHARGE =       0.0000E+00

            IN - OUT =      769289.1644              IN - OUT =       9.7500E-02

          STORAGE:                                 STORAGE:
          --------                                 --------
      STORAGE CHANGE =      769289.2225        STORAGE CHANGE =       9.7500E-02

 PERCENT DISCREPANCY IS DIFFERENCE BETWEEN IN-OUT MINUS CHANGE IN STORAGE
 DIVIDED BY THE AVERAGE OF IN AND OUT TIMES 100

 PERCENT DISCREPANCY =           0.00     PERCENT DISCREPANCY =           0.00






1
  VOLUMETRIC BUDGET FOR AGRICULTURAL FIELDS AT  END OF TIME STEP   30, STRESS PERIOD   4
  ------------------------------------------------------------------------------

     CUMULATIVE VOLUMES      L**3       RATES FOR THIS TIME STEP      L**3/T
     ------------------                 ------------------------

           IN:                                      IN:
           ---                                      ---
               AG WELLS  =           0.0000                 AG WELLS  =           0.0000
      DIVERSION SEGMENTS =           0.0000        DIVERSION SEGMENTS =           0.0000
       IRRIGATION PONDS  =           0.0000         IRRIGATION PONDS  =           0.0000
           GW IRRIGATION =           0.0000             GW IRRIGATION =           0.0000
           SW IRRIGATION =           0.0000             SW IRRIGATION =           0.0000
        SYSTEM LOSSES GW =           0.0000          SYSTEM LOSSES GW =           0.0000
        SYSTEM LOSSES SW =           0.0000          SYSTEM LOSSES SW =           0.0000

                TOTAL IN =           0.0000                  TOTAL IN =           0.0000

          OUT:                                     OUT:
          ----                                     ----
               AG WELLS  =           0.0000                 AG WELLS  =           0.0000
      DIVERSION SEGMENTS =           0.0000        DIVERSION SEGMENTS =           0.0000
       IRRIGATION PONDS  =           0.0000         IRRIGATION PONDS  =           0.0000
           GW IRRIGATION =           0.0000             GW IRRIGATION =           0.0000
           SW IRRIGATION =           0.0000             SW IRRIGATION =           0.0000
        SYSTEM LOSSES GW =           0.0000          SYSTEM LOSSES GW =           0.0000
        SYSTEM LOSSES SW =           0.0000          SYSTEM LOSSES SW =           0.0000

               TOTAL OUT =           0.0000                 TOTAL OUT =           0.0000

                IN - OUT =           0.0000                  IN - OUT =           0.0000

     PERCENT DISCREPANCY =           0.00         PERCENT DISCREPANCY =           0.00



1
  VOLUMETRIC BUDGET FOR ENTIRE MODEL AT END OF TIME STEP   30, STRESS PERIOD   4
  ------------------------------------------------------------------------------

     CUMULATIVE VOLUMES      L**3       RATES FOR THIS TIME STEP      L**3/T
     ------------------                 ------------------------

           IN:                                      IN:
           ---                                      ---
             STORAGE     =     4269827.5000               STORAGE     =           1.1052
       CONSTANT HEAD     =           0.0000         CONSTANT HEAD     =           0.0000
     HEAD DEP BOUNDS     =     2276621.5000       HEAD DEP BOUNDS     =           0.2855
      STREAM LEAKAGE     =    98974168.0000        STREAM LEAKAGE     =          12.9321
        UZF RECHARGE     =       73223.9531          UZF RECHARGE     =           0.0000
               GW ET     =           0.0000                 GW ET     =           0.0000
     SURFACE LEAKAGE     =           0.0000       SURFACE LEAKAGE     =           0.0000
           AG WELLS      =           0.0000             AG WELLS      =           0.0000

                TOTAL IN =   105593840.0000                  TOTAL IN =          14.3228

          OUT:                                     OUT:
          ----                                     ----
             STORAGE     =    22369452.0000               STORAGE     =           2.7188
       CONSTANT HEAD     =           0.0000         CONSTANT HEAD     =           0.0000
     HEAD DEP BOUNDS     =     2327708.2500       HEAD DEP BOUNDS     =           0.2974
      STREAM LEAKAGE     =    80891944.0000        STREAM LEAKAGE     =          11.3025
        UZF RECHARGE     =           0.0000          UZF RECHARGE     =           0.0000
               GW ET     =        9869.1934                 GW ET     =       4.4240E-03
     SURFACE LEAKAGE     =           0.0000       SURFACE LEAKAGE     =           0.0000
           AG WELLS      =           0.0000             AG WELLS      =           0.0000

               TOTAL OUT =   105598976.0000                 TOTAL OUT =          14.3232

                IN - OUT =       -5136.0000                  IN - OUT =      -4.5872E-04

     PERCENT DISCREPANCY =          -0.00         PERCENT DISCREPANCY =          -0.00






         TIME SUMMARY AT END OF TIME STEP   30 IN STRESS PERIOD    4
                    SECONDS     MINUTES      HOURS       DAYS        YEARS
                    -----------------------------------------------------------
   TIME STEP LENGTH  87667.      1461.1      24.352      1.0147     2.77799E-03
 STRESS PERIOD TIME 2.63000E+06  43833.      730.56      30.440     8.33397E-02
         TOTAL TIME 7.97639E+06 1.32940E+05  2215.7      92.319     0.25276    
1
1
                            STRESS PERIOD NO.    5, LENGTH =   2630000.    
                            -----------------------------------------------

                              NUMBER OF TIME STEPS =    30

                               MULTIPLIER FOR DELT =     1.000

                            INITIAL TIME STEP SIZE =   87666.66    

 REUSING NON-PARAMETER GHB CELLS FROM LAST STRESS PERIOD

      2 GHB CELLS

 REUSING STREAM SEGMENT DATA FROM LAST STRESS PERIOD



            AREAL INFILTRATION RATE
 READING ON UNIT   19 WITH FORMAT: (FREE)              

            1           2           3           4           5           6           7           8           9          10
 ........................................................................................................................
   1   1.0000E-10  2.0000E-10   0.000       0.000       0.000       0.000       0.000       0.000       0.000       0.000    
   2   2.0000E-10  1.0000E-10  2.0000E-10   0.000       0.000      8.0000E-10  8.0000E-10  5.0000E-10   0.000       0.000    
   3    0.000      5.0000E-10  1.0000E-10  1.0000E-10  8.0000E-10  8.0000E-10  5.0000E-10  5.0000E-10   0.000       0.000    
   4   8.0000E-10  5.0000E-10  1.0000E-10  1.0000E-10  1.0000E-10  1.0000E-10  1.0000E-10  1.0000E-10  2.0000E-10   0.000    
   5   8.0000E-10  5.0000E-10  1.0000E-10  1.0000E-10  1.0000E-10  1.0000E-10  1.0000E-10  1.0000E-10  1.0000E-10  1.0000E-10
   6   8.0000E-10  5.0000E-10  5.0000E-10  2.0000E-10  2.0000E-10  1.0000E-10  1.0000E-10  1.0000E-10  1.0000E-10  5.0000E-10
   7   8.0000E-10  5.0000E-10  5.0000E-10  2.0000E-10  2.0000E-10  1.0000E-10  1.0000E-10  2.0000E-10  2.0000E-10   0.000    
   8    0.000      5.0000E-10  5.0000E-10  2.0000E-10  2.0000E-10  1.0000E-10  1.0000E-10  2.0000E-10  5.0000E-10   0.000    
   9    0.000      5.0000E-10  5.0000E-10  2.0000E-10  2.0000E-10  1.0000E-10  1.0000E-10  2.0000E-10  5.0000E-10   0.000    
  10    0.000      5.0000E-10  5.0000E-10  2.0000E-10  2.0000E-10  1.0000E-10  1.0000E-10  2.0000E-10  5.0000E-10  8.0000E-10
  11    0.000      1.0000E-10  1.0000E-10  1.0000E-10  1.0000E-10  1.0000E-10  1.0000E-10  2.0000E-10  5.0000E-10   0.000    
  12   1.0000E-10  1.0000E-10  1.0000E-10  1.0000E-10  1.0000E-10  1.0000E-10  1.0000E-10  1.0000E-10  2.0000E-10   0.000    
  13   1.0000E-10  1.0000E-10  2.0000E-10  2.0000E-10  2.0000E-10  2.0000E-10  2.0000E-10  1.0000E-10  1.0000E-10   0.000    
  14    0.000      2.0000E-10  5.0000E-10  5.0000E-10  5.0000E-10  5.0000E-10  5.0000E-10  2.0000E-10  1.0000E-10   0.000    
  15    0.000       0.000      8.0000E-10  8.0000E-10  8.0000E-10  8.0000E-10   0.000       0.000       0.000       0.000    

                  ET RATE =  2.500000E-08

 USING ET EXTINCTION DEPTH FROM PREVIOUS STRESS PERIOD. CURRENT PERIOD IS:       5

 USING EXTINCTION WATER CONTENT FROM PREVIOUS STRESS PERIOD. CURRENT PERIOD IS:       5

 USING AIR ENTRY PRESSURE FROM PREVIOUS STRESS PERIOD. CURRENT PERIOD IS:       5

 USING ROOT PRESSURE HEAD FROM PREVIOUS STRESS PERIOD. CURRENT PERIOD IS:       5

 USING ROOT ACTIVITY FROM PREVIOUS STRESS PERIOD. CURRENT PERIOD IS:       5

 PROCESSING AG STRESS PERIOD DATA

 READING AG STRESS PERIOD DATA

 READING IRRIGATION WELL

 NO IRRPOND OR REUSING IRRPOND DATA FROM LAST STRESS PERIOD

 END PROCESSING AG STRESS PERIOD DATA OPTIONS
 
 SOLVING FOR HEAD 
                                                   Max.-Head-Change                         Max.-Flux-Residual
  Residual-Control   Outer-Iter.   Inner-Iter.     Column Row Layer    Maximum-Head-Change  Column Row Layer    Maximum-Flux-Residual          L2-NORM 
          0                 1           2             4   13     1      -0.1883718985E-01       4   13    1        -0.1104090828E+01      0.2354825392E+01
          0                 2           2             4   13     1       0.1817357293E-02       4   13    1         0.1095202362E+00      0.2321050514E+00
          0                 3           2             4   13     1      -0.1223540386E-03       4   13    1        -0.7581062991E-02      0.1593474405E-01
          0                 4           1             4   13     1       0.4757765285E-05       4   13    1         0.3030903390E-03      0.6317331924E-03

    ------------------------------------------------
       NWT REQUIRED            4 OUTER ITERATIONS 
       AND A TOTAL OF          7 INNER ITERATIONS.
    ------------------------------------------------

 OUTPUT CONTROL FOR STRESS PERIOD    5   TIME STEP    1
    PRINT BUDGET
    SAVE BUDGET
 UBDSV1 SAVING "         STORAGE" ON UNIT 102 AT TIME STEP 1, STRESS PERIOD 5
 UBDSV2 SAVING "   CONSTANT HEAD" ON UNIT 102 AT TIME STEP 1, STRESS PERIOD 5
 UBDSV1 SAVING "FLOW RIGHT FACE " ON UNIT 102 AT TIME STEP 1, STRESS PERIOD 5
 UBDSV1 SAVING "FLOW FRONT FACE " ON UNIT 102 AT TIME STEP 1, STRESS PERIOD 5

  HEAD DEP BOUNDS   PERIOD    5   STEP     1
 BOUNDARY      1   LAYER   1   ROW    13   COL     1   RATE   -0.297160    
 BOUNDARY      2   LAYER   1   ROW    14   COL     9   RATE    0.285471    



 STREAM LISTING     PERIOD      5   STEP        1

 LAYER ROW COL. STREAM  RCH.  FLOW INTO     FLOW TO   FLOW OUT OF   OVRLND.     DIRECT     STREAM       STREAM     STREAM     STREAM   STREAMBED  STREAMBED
                SEG.NO.  NO.  STRM. RCH.    AQUIFER    STRM. RCH.    RUNOFF     PRECIP       ET          HEAD       DEPTH      WIDTH   CONDCTNC.   GRADIENT

   1    1    1     1     1    2.8000E+01  2.5860E-01   2.7741E+01  0.000E+00  0.000E+00  0.000E+00  1.09427E+03  1.221E+00  1.361E+01  6.126E-02  1.407E+00
   1    2    2     1     2    2.7741E+01  4.0002E-01   2.7341E+01  0.000E+00  0.000E+00  0.000E+00  1.08928E+03  1.217E+00  1.355E+01  9.487E-02  1.406E+00
   1    3    3     1     3    2.7341E+01  3.4070E-01   2.7001E+01  0.000E+00  0.000E+00  0.000E+00  1.08363E+03  1.212E+00  1.348E+01  8.090E-02  1.404E+00
   1    3    4     1     4    2.7001E+01  3.1335E-01   2.6687E+01  0.000E+00  0.000E+00  0.000E+00  1.07861E+03  1.207E+00  1.342E+01  7.448E-02  1.402E+00
   1    4    5     2     1    2.4687E+01  3.2711E-01   2.4360E+01  0.000E+00  0.000E+00  0.000E+00  1.07313E+03  1.194E+00  1.200E+01  7.800E-02  1.398E+00
   1    5    6     2     2    2.4360E+01  2.5111E-01   2.4109E+01  0.000E+00  0.000E+00  0.000E+00  1.06769E+03  1.185E+00  1.200E+01  6.000E-02  1.395E+00
   1    6    6     2     3    2.4109E+01  2.5067E-01   2.3858E+01  0.000E+00  0.000E+00  0.000E+00  1.06297E+03  1.178E+00  1.200E+01  6.000E-02  1.393E+00
   1    7    6     2     4    2.3858E+01  2.5023E-01   2.3608E+01  0.000E+00  0.000E+00  0.000E+00  1.05825E+03  1.170E+00  1.200E+01  6.000E-02  1.390E+00
   1    8    6     2     5    2.3608E+01  2.4978E-01   2.3358E+01  0.000E+00  0.000E+00  0.000E+00  1.05352E+03  1.163E+00  1.200E+01  6.000E-02  1.388E+00
   1    3    5     3     1    2.0000E+00  2.8252E-01   1.7175E+00  0.000E+00  0.000E+00  0.000E+00  1.07555E+03  1.909E+00  9.636E+00  7.227E-02  1.955E+00
   1    3    6     3     2    1.7175E+00  2.4905E-01   1.4684E+00  0.000E+00  0.000E+00  0.000E+00  1.07264E+03  1.727E+00  8.909E+00  6.682E-02  1.864E+00
   1    3    7     3     3    1.4684E+00  1.9718E-01   1.2712E+00  0.000E+00  0.000E+00  0.000E+00  1.06987E+03  1.555E+00  8.218E+00  5.547E-02  1.777E+00
   1    4    8     3     4    1.2712E+00  2.2567E-01   1.0456E+00  0.000E+00  0.000E+00  0.000E+00  1.06682E+03  1.364E+00  7.455E+00  6.709E-02  1.682E+00
   1    5    8     3     5    1.0456E+00  1.5790E-01   8.8768E-01  0.000E+00  0.000E+00  0.000E+00  1.06362E+03  1.164E+00  6.655E+00  4.991E-02  1.582E+00
   1    6    8     3     6    8.8768E-01  5.5980E-02   8.3170E-01  0.000E+00  0.000E+00  0.000E+00  1.06158E+03  1.036E+00  6.145E+00  1.844E-02  1.518E+00
   1    5   10     4     1    1.0000E+01  9.0919E-02   9.9091E+00  0.000E+00  0.000E+00  0.000E+00  1.07836E+03  6.368E-01  1.000E+01  2.500E-02  1.212E+00
   1    5    9     4     2    9.9091E+00  1.8158E-01   9.7275E+00  0.000E+00  0.000E+00  0.000E+00  1.07154E+03  6.315E-01  1.000E+01  5.000E-02  1.211E+00
   1    6    8     4     3    9.7275E+00  1.2689E-01   9.6006E+00  0.000E+00  0.000E+00  0.000E+00  1.06381E+03  6.256E-01  1.000E+01  3.500E-02  1.209E+00
   1    6    8     5     1    1.0432E+01  2.2686E-01   1.0205E+01  0.000E+00  0.000E+00  0.000E+00  1.05868E+03  6.790E-01  1.542E+01  6.166E-02  1.226E+00
   1    7    7     5     2    1.0205E+01  2.7894E-01   9.9265E+00  0.000E+00  0.000E+00  0.000E+00  1.05417E+03  6.732E-01  1.519E+01  7.594E-02  1.224E+00
   1    8    7     5     3    9.9265E+00  1.9221E-01   9.7343E+00  0.000E+00  0.000E+00  0.000E+00  1.04992E+03  6.676E-01  1.497E+01  5.241E-02  1.223E+00
   1    8    6     5     4    9.7343E+00  1.3577E-01   9.5985E+00  0.000E+00  0.000E+00  0.000E+00  1.04691E+03  6.637E-01  1.482E+01  3.706E-02  1.221E+00
   1    9    6     6     1    3.2957E+01  2.6627E-01   3.2691E+01  0.000E+00  0.000E+00  0.000E+00  1.04417E+03  1.438E+00  1.200E+01  6.000E-02  1.479E+00
   1   10    7     6     2    3.2691E+01  2.6584E-01   3.2425E+01  0.000E+00  0.000E+00  0.000E+00  1.03961E+03  1.431E+00  1.200E+01  6.000E-02  1.477E+00
   1   11    7     6     3    3.2425E+01  2.6542E-01   3.2159E+01  0.000E+00  0.000E+00  0.000E+00  1.03506E+03  1.424E+00  1.200E+01  6.000E-02  1.475E+00
   1   12    7     6     4    3.2159E+01  2.6500E-01   3.1894E+01  0.000E+00  0.000E+00  0.000E+00  1.03051E+03  1.417E+00  1.200E+01  6.000E-02  1.472E+00
   1   13    7     6     5    3.1894E+01  3.5108E-03   3.1891E+01  0.000E+00  0.000E+00  0.000E+00  1.02732E+03  1.413E+00  1.200E+01  2.400E-02  4.876E-02
   1   14    9     7     1    1.5000E+02  1.3316E+00   1.4867E+02  0.000E+00  0.000E+00  0.000E+00  1.03987E+03  2.288E+00  5.529E+01  5.593E-01  7.936E-01
   1   13    8     7     2    1.4867E+02  1.8147E+00   1.4685E+02  0.000E+00  0.000E+00  0.000E+00  1.03478E+03  2.279E+00  5.526E+01  6.148E-01  9.839E-01
   1   13    7     7     3    1.4685E+02  1.4041E+00   1.4545E+02  0.000E+00  0.000E+00  0.000E+00  1.02969E+03  2.271E+00  5.522E+01  5.585E-01  8.381E-01
   1   13    6     8     1    1.7734E+02  8.5541E-01   1.7649E+02  0.000E+00  0.000E+00  0.000E+00  1.02487E+03  2.997E+00  4.345E+01  4.428E-01  6.440E-01
   1   13    5     8     2    1.7649E+02  9.1594E-02   1.7639E+02  0.000E+00  0.000E+00  0.000E+00  1.01862E+03  2.994E+00  4.341E+01  4.423E-01  6.902E-02
   1   13    4     8     3    1.7639E+02 -3.3089E+00   1.7970E+02  0.000E+00  0.000E+00  0.000E+00  1.01238E+03  3.004E+00  4.356E+01  4.438E+00 -2.485E-01
   1   13    3     8     4    1.7970E+02 -4.4048E+00   1.8411E+02  0.000E+00  0.000E+00  0.000E+00  1.00615E+03  3.028E+00  4.391E+01  4.474E+00 -3.282E-01
   1   13    2     8     5    1.8411E+02 -3.3542E+00   1.8746E+02  0.000E+00  0.000E+00  0.000E+00  9.99927E+02  3.052E+00  4.426E+01  4.510E+00 -2.479E-01
   1   13    1     8     6    1.8746E+02 -2.3820E+00   1.8984E+02  0.000E+00  0.000E+00  0.000E+00  9.94945E+02  3.070E+00  4.451E+01  2.722E+00 -2.918E-01



 UBDSV3 SAVING "           GW ET" ON UNIT  61 AT TIME STEP 1, STRESS PERIOD 5
 UBDSV3 SAVING "    UZF RECHARGE" ON UNIT  61 AT TIME STEP 1, STRESS PERIOD 5
 UBDSV3 SAVING " SURFACE LEAKAGE" ON UNIT  61 AT TIME STEP 1, STRESS PERIOD 5
 UBDSV3 SAVING "       HORT+DUNN" ON UNIT  61 AT TIME STEP 1, STRESS PERIOD 5
 UBDSV3 SAVING "  STORAGE CHANGE" ON UNIT  61 AT TIME STEP 1, STRESS PERIOD 5


UNSATURATED ZONE PACKAGE VOLUMETRIC BUDGET FOR  TIME STEP     1 STRESS PERIOD    5
  ------------------------------------------------------------------------------



     CUMULATIVE VOLUMES      L**3       RATES FOR THIS TIME STEP      L**3/T
     ------------------                 ------------------------

           IN:                                      IN:
           ---                                      ---
        INFILTRATION =     7163046.1141          INFILTRATION =           4.5975

          OUT:                                     OUT:
          ----                                     ----
              UZF ET =     7003382.5276                UZF ET =          12.3867
        UZF RECHARGE =       73224.0000          UZF RECHARGE =       0.0000E+00

            IN - OUT =       86439.5865              IN - OUT =          -7.7892

          STORAGE:                                 STORAGE:
          --------                                 --------
      STORAGE CHANGE =       86439.6400        STORAGE CHANGE =          -7.7892

 PERCENT DISCREPANCY IS DIFFERENCE BETWEEN IN-OUT MINUS CHANGE IN STORAGE
 DIVIDED BY THE AVERAGE OF IN AND OUT TIMES 100

 PERCENT DISCREPANCY =           0.00     PERCENT DISCREPANCY =           0.00






 

            AG WELLS      PERIOD    5   STEP   1
 AG WELL      1   LAYER   1   ROW     6   COL     4   RATE   -0.625000    
 AG WELL      2   LAYER   1   ROW     6   COL     5   RATE   -0.625000    
 AG WELL      3   LAYER   1   ROW     7   COL     4   RATE   -0.625000    
 AG WELL      4   LAYER   1   ROW     7   COL     5   RATE   -0.625000    
 AG WELL      5   LAYER   1   ROW     8   COL     4   RATE   -0.625000    
 AG WELL      6   LAYER   1   ROW     8   COL     5   RATE   -0.625000    
 
 

        GW IRRIGATION     PERIOD    5   STEP   1
 AG WELL      1   ROW     6   COL     4   RATE    0.625000    
 AG WELL      2   ROW     6   COL     5   RATE    0.625000    
 AG WELL      3   ROW     7   COL     4   RATE    0.625000    
 AG WELL      4   ROW     7   COL     5   RATE    0.625000    
 AG WELL      5   ROW     8   COL     4   RATE    0.625000    
 AG WELL      6   ROW     8   COL     5   RATE    0.625000    
 
1
  VOLUMETRIC BUDGET FOR AGRICULTURAL FIELDS AT  END OF TIME STEP    1, STRESS PERIOD   5
  ------------------------------------------------------------------------------

     CUMULATIVE VOLUMES      L**3       RATES FOR THIS TIME STEP      L**3/T
     ------------------                 ------------------------

           IN:                                      IN:
           ---                                      ---
               AG WELLS  =      328750.0000                 AG WELLS  =           3.7500
      DIVERSION SEGMENTS =           0.0000        DIVERSION SEGMENTS =           0.0000
       IRRIGATION PONDS  =           0.0000         IRRIGATION PONDS  =           0.0000
           GW IRRIGATION =           0.0000             GW IRRIGATION =           0.0000
           SW IRRIGATION =           0.0000             SW IRRIGATION =           0.0000
        SYSTEM LOSSES GW =           0.0000          SYSTEM LOSSES GW =           0.0000
        SYSTEM LOSSES SW =           0.0000          SYSTEM LOSSES SW =           0.0000

                TOTAL IN =      328750.0000                  TOTAL IN =           3.7500

          OUT:                                     OUT:
          ----                                     ----
               AG WELLS  =           0.0000                 AG WELLS  =           0.0000
      DIVERSION SEGMENTS =           0.0000        DIVERSION SEGMENTS =           0.0000
       IRRIGATION PONDS  =           0.0000         IRRIGATION PONDS  =           0.0000
           GW IRRIGATION =      328750.0000             GW IRRIGATION =           3.7500
           SW IRRIGATION =           0.0000             SW IRRIGATION =           0.0000
        SYSTEM LOSSES GW =           0.0000          SYSTEM LOSSES GW =           0.0000
        SYSTEM LOSSES SW =           0.0000          SYSTEM LOSSES SW =           0.0000

               TOTAL OUT =      328750.0000                 TOTAL OUT =           3.7500

                IN - OUT =           0.0000                  IN - OUT =           0.0000

     PERCENT DISCREPANCY =           0.00         PERCENT DISCREPANCY =           0.00



1
  VOLUMETRIC BUDGET FOR ENTIRE MODEL AT END OF TIME STEP    1, STRESS PERIOD   5
  ------------------------------------------------------------------------------

     CUMULATIVE VOLUMES      L**3       RATES FOR THIS TIME STEP      L**3/T
     ------------------                 ------------------------

           IN:                                      IN:
           ---                                      ---
             STORAGE     =     4922253.0000               STORAGE     =           7.4421
       CONSTANT HEAD     =           0.0000         CONSTANT HEAD     =           0.0000
     HEAD DEP BOUNDS     =     2301647.7500       HEAD DEP BOUNDS     =           0.2855
      STREAM LEAKAGE     =    99991664.0000        STREAM LEAKAGE     =          11.6064
        UZF RECHARGE     =       73223.9531          UZF RECHARGE     =           0.0000
               GW ET     =           0.0000                 GW ET     =           0.0000
     SURFACE LEAKAGE     =           0.0000       SURFACE LEAKAGE     =           0.0000
           AG WELLS      =           0.0000             AG WELLS      =           0.0000

                TOTAL IN =   107288792.0000                  TOTAL IN =          19.3340

          OUT:                                     OUT:
          ----                                     ----
             STORAGE     =    22502026.0000               STORAGE     =           1.5122
       CONSTANT HEAD     =           0.0000         CONSTANT HEAD     =           0.0000
     HEAD DEP BOUNDS     =     2353759.2500       HEAD DEP BOUNDS     =           0.2972
      STREAM LEAKAGE     =    82071048.0000        STREAM LEAKAGE     =          13.4499
        UZF RECHARGE     =           0.0000          UZF RECHARGE     =           0.0000
               GW ET     =       38340.7695                 GW ET     =           0.3248
     SURFACE LEAKAGE     =           0.0000       SURFACE LEAKAGE     =           0.0000
           AG WELLS      =      328750.0000             AG WELLS      =           3.7500

               TOTAL OUT =   107293928.0000                 TOTAL OUT =          19.3340

                IN - OUT =       -5136.0000                  IN - OUT =      -1.7166E-05

     PERCENT DISCREPANCY =          -0.00         PERCENT DISCREPANCY =          -0.00






         TIME SUMMARY AT END OF TIME STEP    1 IN STRESS PERIOD    5
                    SECONDS     MINUTES      HOURS       DAYS        YEARS
                    -----------------------------------------------------------
   TIME STEP LENGTH  87667.      1461.1      24.352      1.0147     2.77799E-03
 STRESS PERIOD TIME  87667.      1461.1      24.352      1.0147     2.77799E-03
         TOTAL TIME 8.06406E+06 1.34401E+05  2240.0      93.334     0.25553    
1
 
 SOLVING FOR HEAD 
                                                   Max.-Head-Change                         Max.-Flux-Residual
  Residual-Control   Outer-Iter.   Inner-Iter.     Column Row Layer    Maximum-Head-Change  Column Row Layer    Maximum-Flux-Residual          L2-NORM 
          0                 1           2             4   13     1      -0.1670872193E-01       4   13    1        -0.9789539905E+00      0.1653983608E+01
          0                 2           2             4    7     1      -0.1156272344E-01       5    6    1        -0.6242069654E+00      0.1533540489E+01
          0                 3           2             4    7     1       0.7873764894E-03       5    6    1         0.4369187449E-01      0.1073029930E+00
          0                 4           1             4    7     1      -0.3133045745E-04       5    6    1        -0.1786748836E-02      0.4386252688E-02

    ------------------------------------------------
       NWT REQUIRED            4 OUTER ITERATIONS 
       AND A TOTAL OF          7 INNER ITERATIONS.
    ------------------------------------------------

 OUTPUT CONTROL FOR STRESS PERIOD    5   TIME STEP    2
    PRINT BUDGET
    SAVE BUDGET
 UBDSV1 SAVING "         STORAGE" ON UNIT 102 AT TIME STEP 2, STRESS PERIOD 5
 UBDSV2 SAVING "   CONSTANT HEAD" ON UNIT 102 AT TIME STEP 2, STRESS PERIOD 5
 UBDSV1 SAVING "FLOW RIGHT FACE " ON UNIT 102 AT TIME STEP 2, STRESS PERIOD 5
 UBDSV1 SAVING "FLOW FRONT FACE " ON UNIT 102 AT TIME STEP 2, STRESS PERIOD 5

  HEAD DEP BOUNDS   PERIOD    5   STEP     2
 BOUNDARY      1   LAYER   1   ROW    13   COL     1   RATE   -0.296895    
 BOUNDARY      2   LAYER   1   ROW    14   COL     9   RATE    0.285471    



 STREAM LISTING     PERIOD      5   STEP        2

 LAYER ROW COL. STREAM  RCH.  FLOW INTO     FLOW TO   FLOW OUT OF   OVRLND.     DIRECT     STREAM       STREAM     STREAM     STREAM   STREAMBED  STREAMBED
                SEG.NO.  NO.  STRM. RCH.    AQUIFER    STRM. RCH.    RUNOFF     PRECIP       ET          HEAD       DEPTH      WIDTH   CONDCTNC.   GRADIENT

   1    1    1     1     1    2.8000E+01  2.5860E-01   2.7741E+01  0.000E+00  0.000E+00  0.000E+00  1.09427E+03  1.221E+00  1.361E+01  6.126E-02  1.407E+00
   1    2    2     1     2    2.7741E+01  4.0002E-01   2.7341E+01  0.000E+00  0.000E+00  0.000E+00  1.08928E+03  1.217E+00  1.355E+01  9.487E-02  1.406E+00
   1    3    3     1     3    2.7341E+01  3.4070E-01   2.7001E+01  0.000E+00  0.000E+00  0.000E+00  1.08363E+03  1.212E+00  1.348E+01  8.090E-02  1.404E+00
   1    3    4     1     4    2.7001E+01  3.1335E-01   2.6687E+01  0.000E+00  0.000E+00  0.000E+00  1.07861E+03  1.207E+00  1.342E+01  7.448E-02  1.402E+00
   1    4    5     2     1    2.4687E+01  3.2711E-01   2.4360E+01  0.000E+00  0.000E+00  0.000E+00  1.07313E+03  1.194E+00  1.200E+01  7.800E-02  1.398E+00
   1    5    6     2     2    2.4360E+01  2.5111E-01   2.4109E+01  0.000E+00  0.000E+00  0.000E+00  1.06769E+03  1.185E+00  1.200E+01  6.000E-02  1.395E+00
   1    6    6     2     3    2.4109E+01  2.5067E-01   2.3858E+01  0.000E+00  0.000E+00  0.000E+00  1.06297E+03  1.178E+00  1.200E+01  6.000E-02  1.393E+00
   1    7    6     2     4    2.3858E+01  2.5023E-01   2.3608E+01  0.000E+00  0.000E+00  0.000E+00  1.05825E+03  1.170E+00  1.200E+01  6.000E-02  1.390E+00
   1    8    6     2     5    2.3608E+01  2.4978E-01   2.3358E+01  0.000E+00  0.000E+00  0.000E+00  1.05352E+03  1.163E+00  1.200E+01  6.000E-02  1.388E+00
   1    3    5     3     1    2.0000E+00  2.8252E-01   1.7175E+00  0.000E+00  0.000E+00  0.000E+00  1.07555E+03  1.909E+00  9.636E+00  7.227E-02  1.955E+00
   1    3    6     3     2    1.7175E+00  2.4905E-01   1.4684E+00  0.000E+00  0.000E+00  0.000E+00  1.07264E+03  1.727E+00  8.909E+00  6.682E-02  1.864E+00
   1    3    7     3     3    1.4684E+00  1.9718E-01   1.2712E+00  0.000E+00  0.000E+00  0.000E+00  1.06987E+03  1.555E+00  8.218E+00  5.547E-02  1.777E+00
   1    4    8     3     4    1.2712E+00  2.2567E-01   1.0456E+00  0.000E+00  0.000E+00  0.000E+00  1.06682E+03  1.364E+00  7.455E+00  6.709E-02  1.682E+00
   1    5    8     3     5    1.0456E+00  1.5790E-01   8.8768E-01  0.000E+00  0.000E+00  0.000E+00  1.06362E+03  1.164E+00  6.655E+00  4.991E-02  1.582E+00
   1    6    8     3     6    8.8768E-01  5.5980E-02   8.3170E-01  0.000E+00  0.000E+00  0.000E+00  1.06158E+03  1.036E+00  6.145E+00  1.844E-02  1.518E+00
   1    5   10     4     1    1.0000E+01  9.0919E-02   9.9091E+00  0.000E+00  0.000E+00  0.000E+00  1.07836E+03  6.368E-01  1.000E+01  2.500E-02  1.212E+00
   1    5    9     4     2    9.9091E+00  1.8158E-01   9.7275E+00  0.000E+00  0.000E+00  0.000E+00  1.07154E+03  6.315E-01  1.000E+01  5.000E-02  1.211E+00
   1    6    8     4     3    9.7275E+00  1.2689E-01   9.6006E+00  0.000E+00  0.000E+00  0.000E+00  1.06381E+03  6.256E-01  1.000E+01  3.500E-02  1.209E+00
   1    6    8     5     1    1.0432E+01  2.2686E-01   1.0205E+01  0.000E+00  0.000E+00  0.000E+00  1.05868E+03  6.790E-01  1.542E+01  6.166E-02  1.226E+00
   1    7    7     5     2    1.0205E+01  2.7894E-01   9.9265E+00  0.000E+00  0.000E+00  0.000E+00  1.05417E+03  6.732E-01  1.519E+01  7.594E-02  1.224E+00
   1    8    7     5     3    9.9265E+00  1.9221E-01   9.7343E+00  0.000E+00  0.000E+00  0.000E+00  1.04992E+03  6.676E-01  1.497E+01  5.241E-02  1.223E+00
   1    8    6     5     4    9.7343E+00  1.3577E-01   9.5985E+00  0.000E+00  0.000E+00  0.000E+00  1.04691E+03  6.637E-01  1.482E+01  3.706E-02  1.221E+00
   1    9    6     6     1    3.2957E+01  2.6627E-01   3.2691E+01  0.000E+00  0.000E+00  0.000E+00  1.04417E+03  1.438E+00  1.200E+01  6.000E-02  1.479E+00
   1   10    7     6     2    3.2691E+01  2.6584E-01   3.2425E+01  0.000E+00  0.000E+00  0.000E+00  1.03961E+03  1.431E+00  1.200E+01  6.000E-02  1.477E+00
   1   11    7     6     3    3.2425E+01  2.6542E-01   3.2159E+01  0.000E+00  0.000E+00  0.000E+00  1.03506E+03  1.424E+00  1.200E+01  6.000E-02  1.475E+00
   1   12    7     6     4    3.2159E+01  2.6500E-01   3.1894E+01  0.000E+00  0.000E+00  0.000E+00  1.03051E+03  1.417E+00  1.200E+01  6.000E-02  1.472E+00
   1   13    7     6     5    3.1894E+01  3.4993E-03   3.1891E+01  0.000E+00  0.000E+00  0.000E+00  1.02732E+03  1.413E+00  1.200E+01  2.400E-02  4.860E-02
   1   14    9     7     1    1.5000E+02  1.3316E+00   1.4867E+02  0.000E+00  0.000E+00  0.000E+00  1.03987E+03  2.288E+00  5.529E+01  5.593E-01  7.936E-01
   1   13    8     7     2    1.4867E+02  1.8145E+00   1.4685E+02  0.000E+00  0.000E+00  0.000E+00  1.03478E+03  2.279E+00  5.526E+01  6.148E-01  9.838E-01
   1   13    7     7     3    1.4685E+02  1.4038E+00   1.4545E+02  0.000E+00  0.000E+00  0.000E+00  1.02969E+03  2.271E+00  5.522E+01  5.585E-01  8.379E-01
   1   13    6     8     1    1.7734E+02  8.5616E-01   1.7648E+02  0.000E+00  0.000E+00  0.000E+00  1.02487E+03  2.997E+00  4.345E+01  4.428E-01  6.445E-01
   1   13    5     8     2    1.7648E+02  9.2005E-02   1.7639E+02  0.000E+00  0.000E+00  0.000E+00  1.01862E+03  2.994E+00  4.341E+01  4.423E-01  6.933E-02
   1   13    4     8     3    1.7639E+02 -3.2421E+00   1.7963E+02  0.000E+00  0.000E+00  0.000E+00  1.01238E+03  3.004E+00  4.355E+01  4.438E+00 -2.435E-01
   1   13    3     8     4    1.7963E+02 -4.3427E+00   1.8398E+02  0.000E+00  0.000E+00  0.000E+00  1.00615E+03  3.027E+00  4.390E+01  4.473E+00 -3.236E-01
   1   13    2     8     5    1.8398E+02 -3.2978E+00   1.8728E+02  0.000E+00  0.000E+00  0.000E+00  9.99926E+02  3.051E+00  4.424E+01  4.508E+00 -2.438E-01
   1   13    1     8     6    1.8728E+02 -2.3653E+00   1.8964E+02  0.000E+00  0.000E+00  0.000E+00  9.94944E+02  3.069E+00  4.449E+01  2.720E+00 -2.898E-01



 UBDSV3 SAVING "           GW ET" ON UNIT  61 AT TIME STEP 2, STRESS PERIOD 5
 UBDSV3 SAVING "    UZF RECHARGE" ON UNIT  61 AT TIME STEP 2, STRESS PERIOD 5
 UBDSV3 SAVING " SURFACE LEAKAGE" ON UNIT  61 AT TIME STEP 2, STRESS PERIOD 5
 UBDSV3 SAVING "       HORT+DUNN" ON UNIT  61 AT TIME STEP 2, STRESS PERIOD 5
 UBDSV3 SAVING "  STORAGE CHANGE" ON UNIT  61 AT TIME STEP 2, STRESS PERIOD 5


UNSATURATED ZONE PACKAGE VOLUMETRIC BUDGET FOR  TIME STEP     2 STRESS PERIOD    5
  ------------------------------------------------------------------------------



     CUMULATIVE VOLUMES      L**3       RATES FOR THIS TIME STEP      L**3/T
     ------------------                 ------------------------

           IN:                                      IN:
           ---                                      ---
        INFILTRATION =     7563423.9615          INFILTRATION =           4.5670

          OUT:                                     OUT:
          ----                                     ----
              UZF ET =     7403800.0274                UZF ET =           4.5675
        UZF RECHARGE =       73224.0000          UZF RECHARGE =       0.0000E+00

            IN - OUT =       86399.9341              IN - OUT =      -4.5234E-04

          STORAGE:                                 STORAGE:
          --------                                 --------
      STORAGE CHANGE =       86399.9966        STORAGE CHANGE =      -4.5221E-04

 PERCENT DISCREPANCY IS DIFFERENCE BETWEEN IN-OUT MINUS CHANGE IN STORAGE
 DIVIDED BY THE AVERAGE OF IN AND OUT TIMES 100

 PERCENT DISCREPANCY =           0.00     PERCENT DISCREPANCY =           0.00






 

            AG WELLS      PERIOD    5   STEP   2
 AG WELL      1   LAYER   1   ROW     6   COL     4   RATE   -0.619925    
 AG WELL      2   LAYER   1   ROW     6   COL     5   RATE   -0.619925    
 AG WELL      3   LAYER   1   ROW     7   COL     4   RATE   -0.619925    
 AG WELL      4   LAYER   1   ROW     7   COL     5   RATE   -0.619925    
 AG WELL      5   LAYER   1   ROW     8   COL     4   RATE   -0.619925    
 AG WELL      6   LAYER   1   ROW     8   COL     5   RATE   -0.619925    
 
 

        GW IRRIGATION     PERIOD    5   STEP   2
 AG WELL      1   ROW     6   COL     4   RATE    0.619925    
 AG WELL      2   ROW     6   COL     5   RATE    0.619925    
 AG WELL      3   ROW     7   COL     4   RATE    0.619925    
 AG WELL      4   ROW     7   COL     5   RATE    0.619925    
 AG WELL      5   ROW     8   COL     4   RATE    0.619925    
 AG WELL      6   ROW     8   COL     5   RATE    0.619925    
 
1
  VOLUMETRIC BUDGET FOR AGRICULTURAL FIELDS AT  END OF TIME STEP    2, STRESS PERIOD   5
  ------------------------------------------------------------------------------

     CUMULATIVE VOLUMES      L**3       RATES FOR THIS TIME STEP      L**3/T
     ------------------                 ------------------------

           IN:                                      IN:
           ---                                      ---
               AG WELLS  =      654830.3750                 AG WELLS  =           3.7195
      DIVERSION SEGMENTS =           0.0000        DIVERSION SEGMENTS =           0.0000
       IRRIGATION PONDS  =           0.0000         IRRIGATION PONDS  =           0.0000
           GW IRRIGATION =           0.0000             GW IRRIGATION =           0.0000
           SW IRRIGATION =           0.0000             SW IRRIGATION =           0.0000
        SYSTEM LOSSES GW =           0.0000          SYSTEM LOSSES GW =           0.0000
        SYSTEM LOSSES SW =           0.0000          SYSTEM LOSSES SW =           0.0000

                TOTAL IN =      654830.3750                  TOTAL IN =           3.7195

          OUT:                                     OUT:
          ----                                     ----
               AG WELLS  =           0.0000                 AG WELLS  =           0.0000
      DIVERSION SEGMENTS =           0.0000        DIVERSION SEGMENTS =           0.0000
       IRRIGATION PONDS  =           0.0000         IRRIGATION PONDS  =           0.0000
           GW IRRIGATION =      654830.3750             GW IRRIGATION =           3.7195
           SW IRRIGATION =           0.0000             SW IRRIGATION =           0.0000
        SYSTEM LOSSES GW =           0.0000          SYSTEM LOSSES GW =           0.0000
        SYSTEM LOSSES SW =           0.0000          SYSTEM LOSSES SW =           0.0000

               TOTAL OUT =      654830.3750                 TOTAL OUT =           3.7195

                IN - OUT =           0.0000                  IN - OUT =           0.0000

     PERCENT DISCREPANCY =           0.00         PERCENT DISCREPANCY =           0.00



1
  VOLUMETRIC BUDGET FOR ENTIRE MODEL AT END OF TIME STEP    2, STRESS PERIOD   5
  ------------------------------------------------------------------------------

     CUMULATIVE VOLUMES      L**3       RATES FOR THIS TIME STEP      L**3/T
     ------------------                 ------------------------

           IN:                                      IN:
           ---                                      ---
             STORAGE     =     5544981.0000               STORAGE     =           7.1034
       CONSTANT HEAD     =           0.0000         CONSTANT HEAD     =           0.0000
     HEAD DEP BOUNDS     =     2326674.0000       HEAD DEP BOUNDS     =           0.2855
      STREAM LEAKAGE     =   101009224.0000        STREAM LEAKAGE     =          11.6071
        UZF RECHARGE     =       73223.9531          UZF RECHARGE     =           0.0000
               GW ET     =           0.0000                 GW ET     =           0.0000
     SURFACE LEAKAGE     =           0.0000       SURFACE LEAKAGE     =           0.0000
           AG WELLS      =           0.0000             AG WELLS      =           0.0000

                TOTAL IN =   108954104.0000                  TOTAL IN =          18.9960

          OUT:                                     OUT:
          ----                                     ----
             STORAGE     =    22628544.0000               STORAGE     =           1.4432
       CONSTANT HEAD     =           0.0000         CONSTANT HEAD     =           0.0000
     HEAD DEP BOUNDS     =     2379787.0000       HEAD DEP BOUNDS     =           0.2969
      STREAM LEAKAGE     =    83232456.0000        STREAM LEAKAGE     =          13.2480
        UZF RECHARGE     =           0.0000          UZF RECHARGE     =           0.0000
               GW ET     =       63605.7109                 GW ET     =           0.2882
     SURFACE LEAKAGE     =           0.0000       SURFACE LEAKAGE     =           0.0000
           AG WELLS      =      654830.3750             AG WELLS      =           3.7195

               TOTAL OUT =   108959224.0000                 TOTAL OUT =          18.9958

                IN - OUT =       -5120.0000                  IN - OUT =       1.4114E-04

     PERCENT DISCREPANCY =          -0.00         PERCENT DISCREPANCY =           0.00






         TIME SUMMARY AT END OF TIME STEP    2 IN STRESS PERIOD    5
                    SECONDS     MINUTES      HOURS       DAYS        YEARS
                    -----------------------------------------------------------
   TIME STEP LENGTH  87667.      1461.1      24.352      1.0147     2.77799E-03
 STRESS PERIOD TIME 1.75333E+05  2922.2      48.704      2.0293     5.55598E-03
         TOTAL TIME 8.15173E+06 1.35862E+05  2264.4      94.349     0.25831    
1
 
 SOLVING FOR HEAD 
                                                   Max.-Head-Change                         Max.-Flux-Residual
  Residual-Control   Outer-Iter.   Inner-Iter.     Column Row Layer    Maximum-Head-Change  Column Row Layer    Maximum-Flux-Residual          L2-NORM 
          0                 1           2             4   13     1      -0.1482687481E-01       4   13    1        -0.8683451207E+00      0.1506302251E+01
          0                 2           2             4    7     1      -0.1157031639E-01       5    6    1        -0.6257916438E+00      0.1534765849E+01
          0                 3           2             4    7     1       0.7878935481E-03       5    6    1         0.4380308751E-01      0.1073943554E+00
          0                 4           1             4    7     1      -0.3135103167E-04       5    6    1        -0.1791325135E-02      0.4390107734E-02

    ------------------------------------------------
       NWT REQUIRED            4 OUTER ITERATIONS 
       AND A TOTAL OF          7 INNER ITERATIONS.
    ------------------------------------------------

 OUTPUT CONTROL FOR STRESS PERIOD    5   TIME STEP    3
    PRINT BUDGET
    SAVE BUDGET
 UBDSV1 SAVING "         STORAGE" ON UNIT 102 AT TIME STEP 3, STRESS PERIOD 5
 UBDSV2 SAVING "   CONSTANT HEAD" ON UNIT 102 AT TIME STEP 3, STRESS PERIOD 5
 UBDSV1 SAVING "FLOW RIGHT FACE " ON UNIT 102 AT TIME STEP 3, STRESS PERIOD 5
 UBDSV1 SAVING "FLOW FRONT FACE " ON UNIT 102 AT TIME STEP 3, STRESS PERIOD 5

  HEAD DEP BOUNDS   PERIOD    5   STEP     3
 BOUNDARY      1   LAYER   1   ROW    13   COL     1   RATE   -0.296640    
 BOUNDARY      2   LAYER   1   ROW    14   COL     9   RATE    0.285472    



 STREAM LISTING     PERIOD      5   STEP        3

 LAYER ROW COL. STREAM  RCH.  FLOW INTO     FLOW TO   FLOW OUT OF   OVRLND.     DIRECT     STREAM       STREAM     STREAM     STREAM   STREAMBED  STREAMBED
                SEG.NO.  NO.  STRM. RCH.    AQUIFER    STRM. RCH.    RUNOFF     PRECIP       ET          HEAD       DEPTH      WIDTH   CONDCTNC.   GRADIENT

   1    1    1     1     1    2.8000E+01  2.5860E-01   2.7741E+01  0.000E+00  0.000E+00  0.000E+00  1.09427E+03  1.221E+00  1.361E+01  6.126E-02  1.407E+00
   1    2    2     1     2    2.7741E+01  4.0002E-01   2.7341E+01  0.000E+00  0.000E+00  0.000E+00  1.08928E+03  1.217E+00  1.355E+01  9.487E-02  1.406E+00
   1    3    3     1     3    2.7341E+01  3.4070E-01   2.7001E+01  0.000E+00  0.000E+00  0.000E+00  1.08363E+03  1.212E+00  1.348E+01  8.090E-02  1.404E+00
   1    3    4     1     4    2.7001E+01  3.1335E-01   2.6687E+01  0.000E+00  0.000E+00  0.000E+00  1.07861E+03  1.207E+00  1.342E+01  7.448E-02  1.402E+00
   1    4    5     2     1    2.4687E+01  3.2711E-01   2.4360E+01  0.000E+00  0.000E+00  0.000E+00  1.07313E+03  1.194E+00  1.200E+01  7.800E-02  1.398E+00
   1    5    6     2     2    2.4360E+01  2.5111E-01   2.4109E+01  0.000E+00  0.000E+00  0.000E+00  1.06769E+03  1.185E+00  1.200E+01  6.000E-02  1.395E+00
   1    6    6     2     3    2.4109E+01  2.5067E-01   2.3858E+01  0.000E+00  0.000E+00  0.000E+00  1.06297E+03  1.178E+00  1.200E+01  6.000E-02  1.393E+00
   1    7    6     2     4    2.3858E+01  2.5023E-01   2.3608E+01  0.000E+00  0.000E+00  0.000E+00  1.05825E+03  1.170E+00  1.200E+01  6.000E-02  1.390E+00
   1    8    6     2     5    2.3608E+01  2.4978E-01   2.3358E+01  0.000E+00  0.000E+00  0.000E+00  1.05352E+03  1.163E+00  1.200E+01  6.000E-02  1.388E+00
   1    3    5     3     1    2.0000E+00  2.8252E-01   1.7175E+00  0.000E+00  0.000E+00  0.000E+00  1.07555E+03  1.909E+00  9.636E+00  7.227E-02  1.955E+00
   1    3    6     3     2    1.7175E+00  2.4905E-01   1.4684E+00  0.000E+00  0.000E+00  0.000E+00  1.07264E+03  1.727E+00  8.909E+00  6.682E-02  1.864E+00
   1    3    7     3     3    1.4684E+00  1.9718E-01   1.2712E+00  0.000E+00  0.000E+00  0.000E+00  1.06987E+03  1.555E+00  8.218E+00  5.547E-02  1.777E+00
   1    4    8     3     4    1.2712E+00  2.2567E-01   1.0456E+00  0.000E+00  0.000E+00  0.000E+00  1.06682E+03  1.364E+00  7.455E+00  6.709E-02  1.682E+00
   1    5    8     3     5    1.0456E+00  1.5790E-01   8.8768E-01  0.000E+00  0.000E+00  0.000E+00  1.06362E+03  1.164E+00  6.655E+00  4.991E-02  1.582E+00
   1    6    8     3     6    8.8768E-01  5.5980E-02   8.3170E-01  0.000E+00  0.000E+00  0.000E+00  1.06158E+03  1.036E+00  6.145E+00  1.844E-02  1.518E+00
   1    5   10     4     1    1.0000E+01  9.0919E-02   9.9091E+00  0.000E+00  0.000E+00  0.000E+00  1.07836E+03  6.368E-01  1.000E+01  2.500E-02  1.212E+00
   1    5    9     4     2    9.9091E+00  1.8158E-01   9.7275E+00  0.000E+00  0.000E+00  0.000E+00  1.07154E+03  6.315E-01  1.000E+01  5.000E-02  1.211E+00
   1    6    8     4     3    9.7275E+00  1.2689E-01   9.6006E+00  0.000E+00  0.000E+00  0.000E+00  1.06381E+03  6.256E-01  1.000E+01  3.500E-02  1.209E+00
   1    6    8     5     1    1.0432E+01  2.2686E-01   1.0205E+01  0.000E+00  0.000E+00  0.000E+00  1.05868E+03  6.790E-01  1.542E+01  6.166E-02  1.226E+00
   1    7    7     5     2    1.0205E+01  2.7894E-01   9.9265E+00  0.000E+00  0.000E+00  0.000E+00  1.05417E+03  6.732E-01  1.519E+01  7.594E-02  1.224E+00
   1    8    7     5     3    9.9265E+00  1.9221E-01   9.7343E+00  0.000E+00  0.000E+00  0.000E+00  1.04992E+03  6.676E-01  1.497E+01  5.241E-02  1.223E+00
   1    8    6     5     4    9.7343E+00  1.3577E-01   9.5985E+00  0.000E+00  0.000E+00  0.000E+00  1.04691E+03  6.637E-01  1.482E+01  3.706E-02  1.221E+00
   1    9    6     6     1    3.2957E+01  2.6627E-01   3.2691E+01  0.000E+00  0.000E+00  0.000E+00  1.04417E+03  1.438E+00  1.200E+01  6.000E-02  1.479E+00
   1   10    7     6     2    3.2691E+01  2.6584E-01   3.2425E+01  0.000E+00  0.000E+00  0.000E+00  1.03961E+03  1.431E+00  1.200E+01  6.000E-02  1.477E+00
   1   11    7     6     3    3.2425E+01  2.6542E-01   3.2159E+01  0.000E+00  0.000E+00  0.000E+00  1.03506E+03  1.424E+00  1.200E+01  6.000E-02  1.475E+00
   1   12    7     6     4    3.2159E+01  2.6500E-01   3.1894E+01  0.000E+00  0.000E+00  0.000E+00  1.03051E+03  1.417E+00  1.200E+01  6.000E-02  1.472E+00
   1   13    7     6     5    3.1894E+01  3.4885E-03   3.1891E+01  0.000E+00  0.000E+00  0.000E+00  1.02732E+03  1.413E+00  1.200E+01  2.400E-02  4.845E-02
   1   14    9     7     1    1.5000E+02  1.3316E+00   1.4867E+02  0.000E+00  0.000E+00  0.000E+00  1.03987E+03  2.288E+00  5.529E+01  5.593E-01  7.936E-01
   1   13    8     7     2    1.4867E+02  1.8143E+00   1.4685E+02  0.000E+00  0.000E+00  0.000E+00  1.03478E+03  2.279E+00  5.526E+01  6.148E-01  9.837E-01
   1   13    7     7     3    1.4685E+02  1.4036E+00   1.4545E+02  0.000E+00  0.000E+00  0.000E+00  1.02969E+03  2.271E+00  5.522E+01  5.585E-01  8.378E-01
   1   13    6     8     1    1.7734E+02  8.5687E-01   1.7648E+02  0.000E+00  0.000E+00  0.000E+00  1.02487E+03  2.997E+00  4.345E+01  4.428E-01  6.451E-01
   1   13    5     8     2    1.7648E+02  9.2469E-02   1.7639E+02  0.000E+00  0.000E+00  0.000E+00  1.01862E+03  2.994E+00  4.341E+01  4.423E-01  6.968E-02
   1   13    4     8     3    1.7639E+02 -3.1829E+00   1.7957E+02  0.000E+00  0.000E+00  0.000E+00  1.01238E+03  3.003E+00  4.355E+01  4.438E+00 -2.391E-01
   1   13    3     8     4    1.7957E+02 -4.2869E+00   1.8386E+02  0.000E+00  0.000E+00  0.000E+00  1.00615E+03  3.027E+00  4.389E+01  4.473E+00 -3.195E-01
   1   13    2     8     5    1.8386E+02 -3.2456E+00   1.8711E+02  0.000E+00  0.000E+00  0.000E+00  9.99925E+02  3.050E+00  4.423E+01  4.507E+00 -2.400E-01
   1   13    1     8     6    1.8711E+02 -2.3492E+00   1.8946E+02  0.000E+00  0.000E+00  0.000E+00  9.94943E+02  3.067E+00  4.448E+01  2.720E+00 -2.879E-01



 UBDSV3 SAVING "           GW ET" ON UNIT  61 AT TIME STEP 3, STRESS PERIOD 5
 UBDSV3 SAVING "    UZF RECHARGE" ON UNIT  61 AT TIME STEP 3, STRESS PERIOD 5
 UBDSV3 SAVING " SURFACE LEAKAGE" ON UNIT  61 AT TIME STEP 3, STRESS PERIOD 5
 UBDSV3 SAVING "       HORT+DUNN" ON UNIT  61 AT TIME STEP 3, STRESS PERIOD 5
 UBDSV3 SAVING "  STORAGE CHANGE" ON UNIT  61 AT TIME STEP 3, STRESS PERIOD 5


UNSATURATED ZONE PACKAGE VOLUMETRIC BUDGET FOR  TIME STEP     3 STRESS PERIOD    5
  ------------------------------------------------------------------------------



     CUMULATIVE VOLUMES      L**3       RATES FOR THIS TIME STEP      L**3/T
     ------------------                 ------------------------

           IN:                                      IN:
           ---                                      ---
        INFILTRATION =     7963802.4887          INFILTRATION =           4.5671

          OUT:                                     OUT:
          ----                                     ----
              UZF ET =     7804217.5116                UZF ET =           4.5675
        UZF RECHARGE =       73224.0000          UZF RECHARGE =       0.0000E+00

            IN - OUT =       86360.9771              IN - OUT =      -4.4459E-04

          STORAGE:                                 STORAGE:
          --------                                 --------
      STORAGE CHANGE =       86361.0382        STORAGE CHANGE =      -4.4439E-04

 PERCENT DISCREPANCY IS DIFFERENCE BETWEEN IN-OUT MINUS CHANGE IN STORAGE
 DIVIDED BY THE AVERAGE OF IN AND OUT TIMES 100

 PERCENT DISCREPANCY =           0.00     PERCENT DISCREPANCY =          -0.00






 

            AG WELLS      PERIOD    5   STEP   3
 AG WELL      1   LAYER   1   ROW     6   COL     4   RATE   -0.619926    
 AG WELL      2   LAYER   1   ROW     6   COL     5   RATE   -0.619926    
 AG WELL      3   LAYER   1   ROW     7   COL     4   RATE   -0.619926    
 AG WELL      4   LAYER   1   ROW     7   COL     5   RATE   -0.619926    
 AG WELL      5   LAYER   1   ROW     8   COL     4   RATE   -0.619926    
 AG WELL      6   LAYER   1   ROW     8   COL     5   RATE   -0.619926    
 
 

        GW IRRIGATION     PERIOD    5   STEP   3
 AG WELL      1   ROW     6   COL     4   RATE    0.619926    
 AG WELL      2   ROW     6   COL     5   RATE    0.619926    
 AG WELL      3   ROW     7   COL     4   RATE    0.619926    
 AG WELL      4   ROW     7   COL     5   RATE    0.619926    
 AG WELL      5   ROW     8   COL     4   RATE    0.619926    
 AG WELL      6   ROW     8   COL     5   RATE    0.619926    
 
1
  VOLUMETRIC BUDGET FOR AGRICULTURAL FIELDS AT  END OF TIME STEP    3, STRESS PERIOD   5
  ------------------------------------------------------------------------------

     CUMULATIVE VOLUMES      L**3       RATES FOR THIS TIME STEP      L**3/T
     ------------------                 ------------------------

           IN:                                      IN:
           ---                                      ---
               AG WELLS  =      980911.3750                 AG WELLS  =           3.7196
      DIVERSION SEGMENTS =           0.0000        DIVERSION SEGMENTS =           0.0000
       IRRIGATION PONDS  =           0.0000         IRRIGATION PONDS  =           0.0000
           GW IRRIGATION =           0.0000             GW IRRIGATION =           0.0000
           SW IRRIGATION =           0.0000             SW IRRIGATION =           0.0000
        SYSTEM LOSSES GW =           0.0000          SYSTEM LOSSES GW =           0.0000
        SYSTEM LOSSES SW =           0.0000          SYSTEM LOSSES SW =           0.0000

                TOTAL IN =      980911.3750                  TOTAL IN =           3.7196

          OUT:                                     OUT:
          ----                                     ----
               AG WELLS  =           0.0000                 AG WELLS  =           0.0000
      DIVERSION SEGMENTS =           0.0000        DIVERSION SEGMENTS =           0.0000
       IRRIGATION PONDS  =           0.0000         IRRIGATION PONDS  =           0.0000
           GW IRRIGATION =      980911.3750             GW IRRIGATION =           3.7196
           SW IRRIGATION =           0.0000             SW IRRIGATION =           0.0000
        SYSTEM LOSSES GW =           0.0000          SYSTEM LOSSES GW =           0.0000
        SYSTEM LOSSES SW =           0.0000          SYSTEM LOSSES SW =           0.0000

               TOTAL OUT =      980911.3750                 TOTAL OUT =           3.7196

                IN - OUT =           0.0000                  IN - OUT =           0.0000

     PERCENT DISCREPANCY =           0.00         PERCENT DISCREPANCY =           0.00



1
  VOLUMETRIC BUDGET FOR ENTIRE MODEL AT END OF TIME STEP    3, STRESS PERIOD   5
  ------------------------------------------------------------------------------

     CUMULATIVE VOLUMES      L**3       RATES FOR THIS TIME STEP      L**3/T
     ------------------                 ------------------------

           IN:                                      IN:
           ---                                      ---
             STORAGE     =     6143520.5000               STORAGE     =           6.8274
       CONSTANT HEAD     =           0.0000         CONSTANT HEAD     =           0.0000
     HEAD DEP BOUNDS     =     2351700.5000       HEAD DEP BOUNDS     =           0.2855
      STREAM LEAKAGE     =   102026848.0000        STREAM LEAKAGE     =          11.6079
        UZF RECHARGE     =       73223.9531          UZF RECHARGE     =           0.0000
               GW ET     =           0.0000                 GW ET     =           0.0000
     SURFACE LEAKAGE     =           0.0000       SURFACE LEAKAGE     =           0.0000
           AG WELLS      =           0.0000             AG WELLS      =           0.0000

                TOTAL IN =   110595296.0000                  TOTAL IN =          18.7208

          OUT:                                     OUT:
          ----                                     ----
             STORAGE     =    22749912.0000               STORAGE     =           1.3844
       CONSTANT HEAD     =           0.0000         CONSTANT HEAD     =           0.0000
     HEAD DEP BOUNDS     =     2405792.5000       HEAD DEP BOUNDS     =           0.2966
      STREAM LEAKAGE     =    84377784.0000        STREAM LEAKAGE     =          13.0646
        UZF RECHARGE     =           0.0000          UZF RECHARGE     =           0.0000
               GW ET     =       86005.3281                 GW ET     =           0.2555
     SURFACE LEAKAGE     =           0.0000       SURFACE LEAKAGE     =           0.0000
           AG WELLS      =      980911.3750             AG WELLS      =           3.7196

               TOTAL OUT =   110600408.0000                 TOTAL OUT =          18.7207

                IN - OUT =       -5112.0000                  IN - OUT =       1.4114E-04

     PERCENT DISCREPANCY =          -0.00         PERCENT DISCREPANCY =           0.00






         TIME SUMMARY AT END OF TIME STEP    3 IN STRESS PERIOD    5
                    SECONDS     MINUTES      HOURS       DAYS        YEARS
                    -----------------------------------------------------------
   TIME STEP LENGTH  87667.      1461.1      24.352      1.0147     2.77799E-03
 STRESS PERIOD TIME 2.63000E+05  4383.3      73.056      3.0440     8.33397E-03
         TOTAL TIME 8.23939E+06 1.37323E+05  2288.7      95.363     0.26109    
1
 
 SOLVING FOR HEAD 
                                                   Max.-Head-Change                         Max.-Flux-Residual
  Residual-Control   Outer-Iter.   Inner-Iter.     Column Row Layer    Maximum-Head-Change  Column Row Layer    Maximum-Flux-Residual          L2-NORM 
          0                 1           2             4   13     1      -0.1316262422E-01       4   13    1        -0.7705516724E+00      0.1375890419E+01
          0                 2           2             4    7     1      -0.1157823411E-01       5    6    1        -0.6272903960E+00      0.1536177967E+01
          0                 3           2             4    7     1       0.7884327222E-03       5    6    1         0.4390826470E-01      0.1074987284E+00
          0                 4           1             4    7     1      -0.3137248570E-04       5    6    1        -0.1795652534E-02      0.4394677424E-02

    ------------------------------------------------
       NWT REQUIRED            4 OUTER ITERATIONS 
       AND A TOTAL OF          7 INNER ITERATIONS.
    ------------------------------------------------

 OUTPUT CONTROL FOR STRESS PERIOD    5   TIME STEP    4
    PRINT BUDGET
    SAVE BUDGET
 UBDSV1 SAVING "         STORAGE" ON UNIT 102 AT TIME STEP 4, STRESS PERIOD 5
 UBDSV2 SAVING "   CONSTANT HEAD" ON UNIT 102 AT TIME STEP 4, STRESS PERIOD 5
 UBDSV1 SAVING "FLOW RIGHT FACE " ON UNIT 102 AT TIME STEP 4, STRESS PERIOD 5
 UBDSV1 SAVING "FLOW FRONT FACE " ON UNIT 102 AT TIME STEP 4, STRESS PERIOD 5

  HEAD DEP BOUNDS   PERIOD    5   STEP     4
 BOUNDARY      1   LAYER   1   ROW    13   COL     1   RATE   -0.296394    
 BOUNDARY      2   LAYER   1   ROW    14   COL     9   RATE    0.285473    



 STREAM LISTING     PERIOD      5   STEP        4

 LAYER ROW COL. STREAM  RCH.  FLOW INTO     FLOW TO   FLOW OUT OF   OVRLND.     DIRECT     STREAM       STREAM     STREAM     STREAM   STREAMBED  STREAMBED
                SEG.NO.  NO.  STRM. RCH.    AQUIFER    STRM. RCH.    RUNOFF     PRECIP       ET          HEAD       DEPTH      WIDTH   CONDCTNC.   GRADIENT

   1    1    1     1     1    2.8000E+01  2.5860E-01   2.7741E+01  0.000E+00  0.000E+00  0.000E+00  1.09427E+03  1.221E+00  1.361E+01  6.126E-02  1.407E+00
   1    2    2     1     2    2.7741E+01  4.0002E-01   2.7341E+01  0.000E+00  0.000E+00  0.000E+00  1.08928E+03  1.217E+00  1.355E+01  9.487E-02  1.406E+00
   1    3    3     1     3    2.7341E+01  3.4070E-01   2.7001E+01  0.000E+00  0.000E+00  0.000E+00  1.08363E+03  1.212E+00  1.348E+01  8.090E-02  1.404E+00
   1    3    4     1     4    2.7001E+01  3.1335E-01   2.6687E+01  0.000E+00  0.000E+00  0.000E+00  1.07861E+03  1.207E+00  1.342E+01  7.448E-02  1.402E+00
   1    4    5     2     1    2.4687E+01  3.2711E-01   2.4360E+01  0.000E+00  0.000E+00  0.000E+00  1.07313E+03  1.194E+00  1.200E+01  7.800E-02  1.398E+00
   1    5    6     2     2    2.4360E+01  2.5111E-01   2.4109E+01  0.000E+00  0.000E+00  0.000E+00  1.06769E+03  1.185E+00  1.200E+01  6.000E-02  1.395E+00
   1    6    6     2     3    2.4109E+01  2.5067E-01   2.3858E+01  0.000E+00  0.000E+00  0.000E+00  1.06297E+03  1.178E+00  1.200E+01  6.000E-02  1.393E+00
   1    7    6     2     4    2.3858E+01  2.5023E-01   2.3608E+01  0.000E+00  0.000E+00  0.000E+00  1.05825E+03  1.170E+00  1.200E+01  6.000E-02  1.390E+00
   1    8    6     2     5    2.3608E+01  2.4978E-01   2.3358E+01  0.000E+00  0.000E+00  0.000E+00  1.05352E+03  1.163E+00  1.200E+01  6.000E-02  1.388E+00
   1    3    5     3     1    2.0000E+00  2.8252E-01   1.7175E+00  0.000E+00  0.000E+00  0.000E+00  1.07555E+03  1.909E+00  9.636E+00  7.227E-02  1.955E+00
   1    3    6     3     2    1.7175E+00  2.4905E-01   1.4684E+00  0.000E+00  0.000E+00  0.000E+00  1.07264E+03  1.727E+00  8.909E+00  6.682E-02  1.864E+00
   1    3    7     3     3    1.4684E+00  1.9718E-01   1.2712E+00  0.000E+00  0.000E+00  0.000E+00  1.06987E+03  1.555E+00  8.218E+00  5.547E-02  1.777E+00
   1    4    8     3     4    1.2712E+00  2.2567E-01   1.0456E+00  0.000E+00  0.000E+00  0.000E+00  1.06682E+03  1.364E+00  7.455E+00  6.709E-02  1.682E+00
   1    5    8     3     5    1.0456E+00  1.5790E-01   8.8768E-01  0.000E+00  0.000E+00  0.000E+00  1.06362E+03  1.164E+00  6.655E+00  4.991E-02  1.582E+00
   1    6    8     3     6    8.8768E-01  5.5980E-02   8.3170E-01  0.000E+00  0.000E+00  0.000E+00  1.06158E+03  1.036E+00  6.145E+00  1.844E-02  1.518E+00
   1    5   10     4     1    1.0000E+01  9.0919E-02   9.9091E+00  0.000E+00  0.000E+00  0.000E+00  1.07836E+03  6.368E-01  1.000E+01  2.500E-02  1.212E+00
   1    5    9     4     2    9.9091E+00  1.8158E-01   9.7275E+00  0.000E+00  0.000E+00  0.000E+00  1.07154E+03  6.315E-01  1.000E+01  5.000E-02  1.211E+00
   1    6    8     4     3    9.7275E+00  1.2689E-01   9.6006E+00  0.000E+00  0.000E+00  0.000E+00  1.06381E+03  6.256E-01  1.000E+01  3.500E-02  1.209E+00
   1    6    8     5     1    1.0432E+01  2.2686E-01   1.0205E+01  0.000E+00  0.000E+00  0.000E+00  1.05868E+03  6.790E-01  1.542E+01  6.166E-02  1.226E+00
   1    7    7     5     2    1.0205E+01  2.7894E-01   9.9265E+00  0.000E+00  0.000E+00  0.000E+00  1.05417E+03  6.732E-01  1.519E+01  7.594E-02  1.224E+00
   1    8    7     5     3    9.9265E+00  1.9221E-01   9.7343E+00  0.000E+00  0.000E+00  0.000E+00  1.04992E+03  6.676E-01  1.497E+01  5.241E-02  1.223E+00
   1    8    6     5     4    9.7343E+00  1.3577E-01   9.5985E+00  0.000E+00  0.000E+00  0.000E+00  1.04691E+03  6.637E-01  1.482E+01  3.706E-02  1.221E+00
   1    9    6     6     1    3.2957E+01  2.6627E-01   3.2691E+01  0.000E+00  0.000E+00  0.000E+00  1.04417E+03  1.438E+00  1.200E+01  6.000E-02  1.479E+00
   1   10    7     6     2    3.2691E+01  2.6584E-01   3.2425E+01  0.000E+00  0.000E+00  0.000E+00  1.03961E+03  1.431E+00  1.200E+01  6.000E-02  1.477E+00
   1   11    7     6     3    3.2425E+01  2.6542E-01   3.2159E+01  0.000E+00  0.000E+00  0.000E+00  1.03506E+03  1.424E+00  1.200E+01  6.000E-02  1.475E+00
   1   12    7     6     4    3.2159E+01  2.6500E-01   3.1894E+01  0.000E+00  0.000E+00  0.000E+00  1.03051E+03  1.417E+00  1.200E+01  6.000E-02  1.472E+00
   1   13    7     6     5    3.1894E+01  3.4784E-03   3.1891E+01  0.000E+00  0.000E+00  0.000E+00  1.02732E+03  1.413E+00  1.200E+01  2.400E-02  4.831E-02
   1   14    9     7     1    1.5000E+02  1.3316E+00   1.4867E+02  0.000E+00  0.000E+00  0.000E+00  1.03987E+03  2.288E+00  5.529E+01  5.593E-01  7.936E-01
   1   13    8     7     2    1.4867E+02  1.8142E+00   1.4685E+02  0.000E+00  0.000E+00  0.000E+00  1.03478E+03  2.279E+00  5.526E+01  6.148E-01  9.836E-01
   1   13    7     7     3    1.4685E+02  1.4033E+00   1.4545E+02  0.000E+00  0.000E+00  0.000E+00  1.02969E+03  2.271E+00  5.522E+01  5.585E-01  8.376E-01
   1   13    6     8     1    1.7734E+02  8.5754E-01   1.7648E+02  0.000E+00  0.000E+00  0.000E+00  1.02487E+03  2.997E+00  4.345E+01  4.428E-01  6.456E-01
   1   13    5     8     2    1.7648E+02  9.2975E-02   1.7639E+02  0.000E+00  0.000E+00  0.000E+00  1.01862E+03  2.994E+00  4.341E+01  4.423E-01  7.006E-02
   1   13    4     8     3    1.7639E+02 -3.1303E+00   1.7952E+02  0.000E+00  0.000E+00  0.000E+00  1.01238E+03  3.003E+00  4.355E+01  4.438E+00 -2.351E-01
   1   13    3     8     4    1.7952E+02 -4.2365E+00   1.8376E+02  0.000E+00  0.000E+00  0.000E+00  1.00615E+03  3.026E+00  4.388E+01  4.472E+00 -3.158E-01
   1   13    2     8     5    1.8376E+02 -3.1973E+00   1.8696E+02  0.000E+00  0.000E+00  0.000E+00  9.99924E+02  3.050E+00  4.422E+01  4.506E+00 -2.365E-01
   1   13    1     8     6    1.8696E+02 -2.3335E+00   1.8929E+02  0.000E+00  0.000E+00  0.000E+00  9.94942E+02  3.066E+00  4.446E+01  2.719E+00 -2.861E-01



 UBDSV3 SAVING "           GW ET" ON UNIT  61 AT TIME STEP 4, STRESS PERIOD 5
 UBDSV3 SAVING "    UZF RECHARGE" ON UNIT  61 AT TIME STEP 4, STRESS PERIOD 5
 UBDSV3 SAVING " SURFACE LEAKAGE" ON UNIT  61 AT TIME STEP 4, STRESS PERIOD 5
 UBDSV3 SAVING "       HORT+DUNN" ON UNIT  61 AT TIME STEP 4, STRESS PERIOD 5
 UBDSV3 SAVING "  STORAGE CHANGE" ON UNIT  61 AT TIME STEP 4, STRESS PERIOD 5


UNSATURATED ZONE PACKAGE VOLUMETRIC BUDGET FOR  TIME STEP     4 STRESS PERIOD    5
  ------------------------------------------------------------------------------



     CUMULATIVE VOLUMES      L**3       RATES FOR THIS TIME STEP      L**3/T
     ------------------                 ------------------------

           IN:                                      IN:
           ---                                      ---
        INFILTRATION =     8364181.6017          INFILTRATION =           4.5671

          OUT:                                     OUT:
          ----                                     ----
              UZF ET =     8204634.9918                UZF ET =           4.5675
        UZF RECHARGE =       73224.0000          UZF RECHARGE =       0.0000E+00

            IN - OUT =       86322.6099              IN - OUT =      -4.3774E-04

          STORAGE:                                 STORAGE:
          --------                                 --------
      STORAGE CHANGE =       86322.6656        STORAGE CHANGE =      -4.3771E-04

 PERCENT DISCREPANCY IS DIFFERENCE BETWEEN IN-OUT MINUS CHANGE IN STORAGE
 DIVIDED BY THE AVERAGE OF IN AND OUT TIMES 100

 PERCENT DISCREPANCY =           0.00     PERCENT DISCREPANCY =           0.00






 

            AG WELLS      PERIOD    5   STEP   4
 AG WELL      1   LAYER   1   ROW     6   COL     4   RATE   -0.619927    
 AG WELL      2   LAYER   1   ROW     6   COL     5   RATE   -0.619927    
 AG WELL      3   LAYER   1   ROW     7   COL     4   RATE   -0.619927    
 AG WELL      4   LAYER   1   ROW     7   COL     5   RATE   -0.619927    
 AG WELL      5   LAYER   1   ROW     8   COL     4   RATE   -0.619927    
 AG WELL      6   LAYER   1   ROW     8   COL     5   RATE   -0.619927    
 
 

        GW IRRIGATION     PERIOD    5   STEP   4
 AG WELL      1   ROW     6   COL     4   RATE    0.619927    
 AG WELL      2   ROW     6   COL     5   RATE    0.619927    
 AG WELL      3   ROW     7   COL     4   RATE    0.619927    
 AG WELL      4   ROW     7   COL     5   RATE    0.619927    
 AG WELL      5   ROW     8   COL     4   RATE    0.619927    
 AG WELL      6   ROW     8   COL     5   RATE    0.619927    
 
1
  VOLUMETRIC BUDGET FOR AGRICULTURAL FIELDS AT  END OF TIME STEP    4, STRESS PERIOD   5
  ------------------------------------------------------------------------------

     CUMULATIVE VOLUMES      L**3       RATES FOR THIS TIME STEP      L**3/T
     ------------------                 ------------------------

           IN:                                      IN:
           ---                                      ---
               AG WELLS  =     1306993.0000                 AG WELLS  =           3.7196
      DIVERSION SEGMENTS =           0.0000        DIVERSION SEGMENTS =           0.0000
       IRRIGATION PONDS  =           0.0000         IRRIGATION PONDS  =           0.0000
           GW IRRIGATION =           0.0000             GW IRRIGATION =           0.0000
           SW IRRIGATION =           0.0000             SW IRRIGATION =           0.0000
        SYSTEM LOSSES GW =           0.0000          SYSTEM LOSSES GW =           0.0000
        SYSTEM LOSSES SW =           0.0000          SYSTEM LOSSES SW =           0.0000

                TOTAL IN =     1306993.0000                  TOTAL IN =           3.7196

          OUT:                                     OUT:
          ----                                     ----
               AG WELLS  =           0.0000                 AG WELLS  =           0.0000
      DIVERSION SEGMENTS =           0.0000        DIVERSION SEGMENTS =           0.0000
       IRRIGATION PONDS  =           0.0000         IRRIGATION PONDS  =           0.0000
           GW IRRIGATION =     1306993.0000             GW IRRIGATION =           3.7196
           SW IRRIGATION =           0.0000             SW IRRIGATION =           0.0000
        SYSTEM LOSSES GW =           0.0000          SYSTEM LOSSES GW =           0.0000
        SYSTEM LOSSES SW =           0.0000          SYSTEM LOSSES SW =           0.0000

               TOTAL OUT =     1306993.0000                 TOTAL OUT =           3.7196

                IN - OUT =           0.0000                  IN - OUT =           0.0000

     PERCENT DISCREPANCY =           0.00         PERCENT DISCREPANCY =           0.00



1
  VOLUMETRIC BUDGET FOR ENTIRE MODEL AT END OF TIME STEP    4, STRESS PERIOD   5
  ------------------------------------------------------------------------------

     CUMULATIVE VOLUMES      L**3       RATES FOR THIS TIME STEP      L**3/T
     ------------------                 ------------------------

           IN:                                      IN:
           ---                                      ---
             STORAGE     =     6719931.0000               STORAGE     =           6.5750
       CONSTANT HEAD     =           0.0000         CONSTANT HEAD     =           0.0000
     HEAD DEP BOUNDS     =     2376727.0000       HEAD DEP BOUNDS     =           0.2855
      STREAM LEAKAGE     =   103044544.0000        STREAM LEAKAGE     =          11.6087
        UZF RECHARGE     =       73223.9531          UZF RECHARGE     =           0.0000
               GW ET     =           0.0000                 GW ET     =           0.0000
     SURFACE LEAKAGE     =           0.0000       SURFACE LEAKAGE     =           0.0000
           AG WELLS      =           0.0000             AG WELLS      =           0.0000

                TOTAL IN =   112214424.0000                  TOTAL IN =          18.4692

          OUT:                                     OUT:
          ----                                     ----
             STORAGE     =    22866434.0000               STORAGE     =           1.3292
       CONSTANT HEAD     =           0.0000         CONSTANT HEAD     =           0.0000
     HEAD DEP BOUNDS     =     2431776.2500       HEAD DEP BOUNDS     =           0.2964
      STREAM LEAKAGE     =    85508480.0000        STREAM LEAKAGE     =          12.8977
        UZF RECHARGE     =           0.0000          UZF RECHARGE     =           0.0000
               GW ET     =      105843.7656                 GW ET     =           0.2263
     SURFACE LEAKAGE     =           0.0000       SURFACE LEAKAGE     =           0.0000
           AG WELLS      =     1306993.0000             AG WELLS      =           3.7196

               TOTAL OUT =   112219520.0000                 TOTAL OUT =          18.4691

                IN - OUT =       -5096.0000                  IN - OUT =       1.4114E-04

     PERCENT DISCREPANCY =          -0.00         PERCENT DISCREPANCY =           0.00






         TIME SUMMARY AT END OF TIME STEP    4 IN STRESS PERIOD    5
                    SECONDS     MINUTES      HOURS       DAYS        YEARS
                    -----------------------------------------------------------
   TIME STEP LENGTH  87667.      1461.1      24.352      1.0147     2.77799E-03
 STRESS PERIOD TIME 3.50667E+05  5844.4      97.407      4.0586     1.11120E-02
         TOTAL TIME 8.32706E+06 1.38784E+05  2313.1      96.378     0.26387    
1
 
 SOLVING FOR HEAD 
                                                   Max.-Head-Change                         Max.-Flux-Residual
  Residual-Control   Outer-Iter.   Inner-Iter.     Column Row Layer    Maximum-Head-Change  Column Row Layer    Maximum-Flux-Residual          L2-NORM 
          0                 1           2             4   13     1      -0.1169038670E-01       4   13    1        -0.6840647428E+00      0.1261107068E+01
          0                 2           2             4    7     1      -0.1158652369E-01       5    6    1        -0.6287077894E+00      0.1537729371E+01
          0                 3           2             4    7     1       0.7889972173E-03       5    6    1         0.4400772805E-01      0.1076122371E+00
          0                 4           1             4    7     1      -0.3139494755E-04       5    6    1        -0.1799744450E-02      0.4399562750E-02

    ------------------------------------------------
       NWT REQUIRED            4 OUTER ITERATIONS 
       AND A TOTAL OF          7 INNER ITERATIONS.
    ------------------------------------------------

 NO OUTPUT CONTROL FOR STRESS PERIOD    5   TIME STEP    5
 
 SOLVING FOR HEAD 
                                                   Max.-Head-Change                         Max.-Flux-Residual
  Residual-Control   Outer-Iter.   Inner-Iter.     Column Row Layer    Maximum-Head-Change  Column Row Layer    Maximum-Flux-Residual          L2-NORM 
          0                 1           2             2   13     1      -0.1064175892E-01       4   13    1        -0.6075523781E+00      0.1160490384E+01
          0                 2           2             4    7     1      -0.1159509431E-01       5    6    1        -0.6300528926E+00      0.1539378816E+01
          0                 3           2             4    7     1       0.7895808491E-03       5    6    1         0.4409845987E-01      0.1077292061E+00
          0                 4           1             4    7     1      -0.3141817040E-04       5    6    1        -0.1803123104E-02      0.4404540769E-02

    ------------------------------------------------
       NWT REQUIRED            4 OUTER ITERATIONS 
       AND A TOTAL OF          7 INNER ITERATIONS.
    ------------------------------------------------

 OUTPUT CONTROL FOR STRESS PERIOD    5   TIME STEP    6
    PRINT BUDGET
    SAVE BUDGET
 UBDSV1 SAVING "         STORAGE" ON UNIT 102 AT TIME STEP 6, STRESS PERIOD 5
 UBDSV2 SAVING "   CONSTANT HEAD" ON UNIT 102 AT TIME STEP 6, STRESS PERIOD 5
 UBDSV1 SAVING "FLOW RIGHT FACE " ON UNIT 102 AT TIME STEP 6, STRESS PERIOD 5
 UBDSV1 SAVING "FLOW FRONT FACE " ON UNIT 102 AT TIME STEP 6, STRESS PERIOD 5

  HEAD DEP BOUNDS   PERIOD    5   STEP     6
 BOUNDARY      1   LAYER   1   ROW    13   COL     1   RATE   -0.295931    
 BOUNDARY      2   LAYER   1   ROW    14   COL     9   RATE    0.285474    



 STREAM LISTING     PERIOD      5   STEP        6

 LAYER ROW COL. STREAM  RCH.  FLOW INTO     FLOW TO   FLOW OUT OF   OVRLND.     DIRECT     STREAM       STREAM     STREAM     STREAM   STREAMBED  STREAMBED
                SEG.NO.  NO.  STRM. RCH.    AQUIFER    STRM. RCH.    RUNOFF     PRECIP       ET          HEAD       DEPTH      WIDTH   CONDCTNC.   GRADIENT

   1    1    1     1     1    2.8000E+01  2.5860E-01   2.7742E+01  0.000E+00  0.000E+00  0.000E+00  1.09427E+03  1.221E+00  1.361E+01  6.126E-02  1.407E+00
   1    2    2     1     2    2.7742E+01  4.0002E-01   2.7341E+01  0.000E+00  0.000E+00  0.000E+00  1.08928E+03  1.217E+00  1.355E+01  9.487E-02  1.406E+00
   1    3    3     1     3    2.7341E+01  3.4070E-01   2.7001E+01  0.000E+00  0.000E+00  0.000E+00  1.08363E+03  1.212E+00  1.348E+01  8.090E-02  1.404E+00
   1    3    4     1     4    2.7001E+01  3.1335E-01   2.6687E+01  0.000E+00  0.000E+00  0.000E+00  1.07861E+03  1.207E+00  1.342E+01  7.448E-02  1.402E+00
   1    4    5     2     1    2.4687E+01  3.2711E-01   2.4360E+01  0.000E+00  0.000E+00  0.000E+00  1.07313E+03  1.194E+00  1.200E+01  7.800E-02  1.398E+00
   1    5    6     2     2    2.4360E+01  2.5111E-01   2.4109E+01  0.000E+00  0.000E+00  0.000E+00  1.06769E+03  1.185E+00  1.200E+01  6.000E-02  1.395E+00
   1    6    6     2     3    2.4109E+01  2.5067E-01   2.3859E+01  0.000E+00  0.000E+00  0.000E+00  1.06297E+03  1.178E+00  1.200E+01  6.000E-02  1.393E+00
   1    7    6     2     4    2.3859E+01  2.5023E-01   2.3608E+01  0.000E+00  0.000E+00  0.000E+00  1.05825E+03  1.170E+00  1.200E+01  6.000E-02  1.390E+00
   1    8    6     2     5    2.3608E+01  2.4978E-01   2.3359E+01  0.000E+00  0.000E+00  0.000E+00  1.05352E+03  1.163E+00  1.200E+01  6.000E-02  1.388E+00
   1    3    5     3     1    2.0000E+00  2.8252E-01   1.7175E+00  0.000E+00  0.000E+00  0.000E+00  1.07555E+03  1.909E+00  9.636E+00  7.227E-02  1.955E+00
   1    3    6     3     2    1.7175E+00  2.4905E-01   1.4684E+00  0.000E+00  0.000E+00  0.000E+00  1.07264E+03  1.727E+00  8.909E+00  6.682E-02  1.864E+00
   1    3    7     3     3    1.4684E+00  1.9718E-01   1.2712E+00  0.000E+00  0.000E+00  0.000E+00  1.06987E+03  1.555E+00  8.218E+00  5.547E-02  1.777E+00
   1    4    8     3     4    1.2712E+00  2.2567E-01   1.0456E+00  0.000E+00  0.000E+00  0.000E+00  1.06682E+03  1.364E+00  7.455E+00  6.709E-02  1.682E+00
   1    5    8     3     5    1.0456E+00  1.5790E-01   8.8768E-01  0.000E+00  0.000E+00  0.000E+00  1.06362E+03  1.164E+00  6.655E+00  4.991E-02  1.582E+00
   1    6    8     3     6    8.8768E-01  5.5980E-02   8.3170E-01  0.000E+00  0.000E+00  0.000E+00  1.06158E+03  1.036E+00  6.145E+00  1.844E-02  1.518E+00
   1    5   10     4     1    1.0000E+01  9.0919E-02   9.9091E+00  0.000E+00  0.000E+00  0.000E+00  1.07836E+03  6.368E-01  1.000E+01  2.500E-02  1.212E+00
   1    5    9     4     2    9.9091E+00  1.8158E-01   9.7275E+00  0.000E+00  0.000E+00  0.000E+00  1.07154E+03  6.315E-01  1.000E+01  5.000E-02  1.211E+00
   1    6    8     4     3    9.7275E+00  1.2689E-01   9.6006E+00  0.000E+00  0.000E+00  0.000E+00  1.06381E+03  6.256E-01  1.000E+01  3.500E-02  1.209E+00
   1    6    8     5     1    1.0432E+01  2.2686E-01   1.0205E+01  0.000E+00  0.000E+00  0.000E+00  1.05868E+03  6.790E-01  1.542E+01  6.166E-02  1.226E+00
   1    7    7     5     2    1.0205E+01  2.7894E-01   9.9265E+00  0.000E+00  0.000E+00  0.000E+00  1.05417E+03  6.732E-01  1.519E+01  7.594E-02  1.224E+00
   1    8    7     5     3    9.9265E+00  1.9221E-01   9.7343E+00  0.000E+00  0.000E+00  0.000E+00  1.04992E+03  6.676E-01  1.497E+01  5.241E-02  1.223E+00
   1    8    6     5     4    9.7343E+00  1.3577E-01   9.5985E+00  0.000E+00  0.000E+00  0.000E+00  1.04691E+03  6.637E-01  1.482E+01  3.706E-02  1.221E+00
   1    9    6     6     1    3.2957E+01  2.6627E-01   3.2691E+01  0.000E+00  0.000E+00  0.000E+00  1.04417E+03  1.438E+00  1.200E+01  6.000E-02  1.479E+00
   1   10    7     6     2    3.2691E+01  2.6585E-01   3.2425E+01  0.000E+00  0.000E+00  0.000E+00  1.03961E+03  1.431E+00  1.200E+01  6.000E-02  1.477E+00
   1   11    7     6     3    3.2425E+01  2.6542E-01   3.2160E+01  0.000E+00  0.000E+00  0.000E+00  1.03506E+03  1.424E+00  1.200E+01  6.000E-02  1.475E+00
   1   12    7     6     4    3.2160E+01  2.6500E-01   3.1895E+01  0.000E+00  0.000E+00  0.000E+00  1.03051E+03  1.417E+00  1.200E+01  6.000E-02  1.472E+00
   1   13    7     6     5    3.1895E+01  3.4601E-03   3.1891E+01  0.000E+00  0.000E+00  0.000E+00  1.02732E+03  1.413E+00  1.200E+01  2.400E-02  4.806E-02
   1   14    9     7     1    1.5000E+02  1.3316E+00   1.4867E+02  0.000E+00  0.000E+00  0.000E+00  1.03987E+03  2.288E+00  5.529E+01  5.593E-01  7.936E-01
   1   13    8     7     2    1.4867E+02  1.8139E+00   1.4685E+02  0.000E+00  0.000E+00  0.000E+00  1.03478E+03  2.279E+00  5.526E+01  6.148E-01  9.835E-01
   1   13    7     7     3    1.4685E+02  1.4029E+00   1.4545E+02  0.000E+00  0.000E+00  0.000E+00  1.02969E+03  2.271E+00  5.522E+01  5.585E-01  8.374E-01
   1   13    6     8     1    1.7734E+02  8.5882E-01   1.7648E+02  0.000E+00  0.000E+00  0.000E+00  1.02487E+03  2.997E+00  4.345E+01  4.428E-01  6.465E-01
   1   13    5     8     2    1.7648E+02  9.4079E-02   1.7639E+02  0.000E+00  0.000E+00  0.000E+00  1.01862E+03  2.994E+00  4.341E+01  4.423E-01  7.090E-02
   1   13    4     8     3    1.7639E+02 -3.0422E+00   1.7943E+02  0.000E+00  0.000E+00  0.000E+00  1.01238E+03  3.003E+00  4.354E+01  4.437E+00 -2.285E-01
   1   13    3     8     4    1.7943E+02 -4.1505E+00   1.8358E+02  0.000E+00  0.000E+00  0.000E+00  1.00615E+03  3.026E+00  4.387E+01  4.471E+00 -3.095E-01
   1   13    2     8     5    1.8358E+02 -3.1109E+00   1.8669E+02  0.000E+00  0.000E+00  0.000E+00  9.99923E+02  3.048E+00  4.420E+01  4.504E+00 -2.302E-01
   1   13    1     8     6    1.8669E+02 -2.3037E+00   1.8900E+02  0.000E+00  0.000E+00  0.000E+00  9.94940E+02  3.065E+00  4.444E+01  2.717E+00 -2.826E-01



 UBDSV3 SAVING "           GW ET" ON UNIT  61 AT TIME STEP 6, STRESS PERIOD 5
 UBDSV3 SAVING "    UZF RECHARGE" ON UNIT  61 AT TIME STEP 6, STRESS PERIOD 5
 UBDSV3 SAVING " SURFACE LEAKAGE" ON UNIT  61 AT TIME STEP 6, STRESS PERIOD 5
 UBDSV3 SAVING "       HORT+DUNN" ON UNIT  61 AT TIME STEP 6, STRESS PERIOD 5
 UBDSV3 SAVING "  STORAGE CHANGE" ON UNIT  61 AT TIME STEP 6, STRESS PERIOD 5


UNSATURATED ZONE PACKAGE VOLUMETRIC BUDGET FOR  TIME STEP     6 STRESS PERIOD    5
  ------------------------------------------------------------------------------



     CUMULATIVE VOLUMES      L**3       RATES FOR THIS TIME STEP      L**3/T
     ------------------                 ------------------------

           IN:                                      IN:
           ---                                      ---
        INFILTRATION =     9164941.6326          INFILTRATION =           4.5671

          OUT:                                     OUT:
          ----                                     ----
              UZF ET =     9005469.9523                UZF ET =           4.5675
        UZF RECHARGE =       73224.0000          UZF RECHARGE =       0.0000E+00

            IN - OUT =       86247.6802              IN - OUT =      -4.2415E-04

          STORAGE:                                 STORAGE:
          --------                                 --------
      STORAGE CHANGE =       86247.7115        STORAGE CHANGE =      -4.2421E-04

 PERCENT DISCREPANCY IS DIFFERENCE BETWEEN IN-OUT MINUS CHANGE IN STORAGE
 DIVIDED BY THE AVERAGE OF IN AND OUT TIMES 100

 PERCENT DISCREPANCY =           0.00     PERCENT DISCREPANCY =           0.00






 

            AG WELLS      PERIOD    5   STEP   6
 AG WELL      1   LAYER   1   ROW     6   COL     4   RATE   -0.619929    
 AG WELL      2   LAYER   1   ROW     6   COL     5   RATE   -0.619929    
 AG WELL      3   LAYER   1   ROW     7   COL     4   RATE   -0.619929    
 AG WELL      4   LAYER   1   ROW     7   COL     5   RATE   -0.619929    
 AG WELL      5   LAYER   1   ROW     8   COL     4   RATE   -0.619929    
 AG WELL      6   LAYER   1   ROW     8   COL     5   RATE   -0.619929    
 
 

        GW IRRIGATION     PERIOD    5   STEP   6
 AG WELL      1   ROW     6   COL     4   RATE    0.619929    
 AG WELL      2   ROW     6   COL     5   RATE    0.619929    
 AG WELL      3   ROW     7   COL     4   RATE    0.619929    
 AG WELL      4   ROW     7   COL     5   RATE    0.619929    
 AG WELL      5   ROW     8   COL     4   RATE    0.619929    
 AG WELL      6   ROW     8   COL     5   RATE    0.619929    
 
1
  VOLUMETRIC BUDGET FOR AGRICULTURAL FIELDS AT  END OF TIME STEP    6, STRESS PERIOD   5
  ------------------------------------------------------------------------------

     CUMULATIVE VOLUMES      L**3       RATES FOR THIS TIME STEP      L**3/T
     ------------------                 ------------------------

           IN:                                      IN:
           ---                                      ---
               AG WELLS  =     1959158.0000                 AG WELLS  =           3.7196
      DIVERSION SEGMENTS =           0.0000        DIVERSION SEGMENTS =           0.0000
       IRRIGATION PONDS  =           0.0000         IRRIGATION PONDS  =           0.0000
           GW IRRIGATION =           0.0000             GW IRRIGATION =           0.0000
           SW IRRIGATION =           0.0000             SW IRRIGATION =           0.0000
        SYSTEM LOSSES GW =           0.0000          SYSTEM LOSSES GW =           0.0000
        SYSTEM LOSSES SW =           0.0000          SYSTEM LOSSES SW =           0.0000

                TOTAL IN =     1959158.0000                  TOTAL IN =           3.7196

          OUT:                                     OUT:
          ----                                     ----
               AG WELLS  =           0.0000                 AG WELLS  =           0.0000
      DIVERSION SEGMENTS =           0.0000        DIVERSION SEGMENTS =           0.0000
       IRRIGATION PONDS  =           0.0000         IRRIGATION PONDS  =           0.0000
           GW IRRIGATION =     1959158.0000             GW IRRIGATION =           3.7196
           SW IRRIGATION =           0.0000             SW IRRIGATION =           0.0000
        SYSTEM LOSSES GW =           0.0000          SYSTEM LOSSES GW =           0.0000
        SYSTEM LOSSES SW =           0.0000          SYSTEM LOSSES SW =           0.0000

               TOTAL OUT =     1959158.0000                 TOTAL OUT =           3.7196

                IN - OUT =           0.0000                  IN - OUT =           0.0000

     PERCENT DISCREPANCY =           0.00         PERCENT DISCREPANCY =           0.00



1
  VOLUMETRIC BUDGET FOR ENTIRE MODEL AT END OF TIME STEP    6, STRESS PERIOD   5
  ------------------------------------------------------------------------------

     CUMULATIVE VOLUMES      L**3       RATES FOR THIS TIME STEP      L**3/T
     ------------------                 ------------------------

           IN:                                      IN:
           ---                                      ---
             STORAGE     =     7816869.5000               STORAGE     =           6.1575
       CONSTANT HEAD     =           0.0000         CONSTANT HEAD     =           0.0000
     HEAD DEP BOUNDS     =     2426780.0000       HEAD DEP BOUNDS     =           0.2855
      STREAM LEAKAGE     =   105080152.0000        STREAM LEAKAGE     =          11.6104
        UZF RECHARGE     =       73223.9531          UZF RECHARGE     =           0.0000
               GW ET     =           0.0000                 GW ET     =           0.0000
     SURFACE LEAKAGE     =           0.0000       SURFACE LEAKAGE     =           0.0000
           AG WELLS      =           0.0000             AG WELLS      =           0.0000

                TOTAL IN =   115397024.0000                  TOTAL IN =          18.0533

          OUT:                                     OUT:
          ----                                     ----
             STORAGE     =    23089274.0000               STORAGE     =           1.2535
       CONSTANT HEAD     =           0.0000         CONSTANT HEAD     =           0.0000
     HEAD DEP BOUNDS     =     2483682.7500       HEAD DEP BOUNDS     =           0.2959
      STREAM LEAKAGE     =    87731096.0000        STREAM LEAKAGE     =          12.6073
        UZF RECHARGE     =           0.0000          UZF RECHARGE     =           0.0000
               GW ET     =      138892.0625                 GW ET     =           0.1768
     SURFACE LEAKAGE     =           0.0000       SURFACE LEAKAGE     =           0.0000
           AG WELLS      =     1959158.0000             AG WELLS      =           3.7196

               TOTAL OUT =   115402104.0000                 TOTAL OUT =          18.0531

                IN - OUT =       -5080.0000                  IN - OUT =       1.4496E-04

     PERCENT DISCREPANCY =          -0.00         PERCENT DISCREPANCY =           0.00






         TIME SUMMARY AT END OF TIME STEP    6 IN STRESS PERIOD    5
                    SECONDS     MINUTES      HOURS       DAYS        YEARS
                    -----------------------------------------------------------
   TIME STEP LENGTH  87667.      1461.1      24.352      1.0147     2.77799E-03
 STRESS PERIOD TIME 5.26000E+05  8766.7      146.11      6.0880     1.66679E-02
         TOTAL TIME 8.50239E+06 1.41707E+05  2361.8      98.407     0.26942    
1
 
 SOLVING FOR HEAD 
                                                   Max.-Head-Change                         Max.-Flux-Residual
  Residual-Control   Outer-Iter.   Inner-Iter.     Column Row Layer    Maximum-Head-Change  Column Row Layer    Maximum-Flux-Residual          L2-NORM 
          0                 1           2             2   13     1      -0.9847467965E-02       2   13    1        -0.5543465031E+00      0.1072765908E+01
          0                 2           2             4    7     1      -0.1160391312E-01       5    6    1        -0.6313290283E+00      0.1541095657E+01
          0                 3           2             5    7     1       0.7871327207E-03       5    6    1         0.4418830495E-01      0.1077431741E+00
          0                 4           1             5    7     1      -0.3132079755E-04       5    6    1        -0.1806847787E-02      0.4405279537E-02

    ------------------------------------------------
       NWT REQUIRED            4 OUTER ITERATIONS 
       AND A TOTAL OF          7 INNER ITERATIONS.
    ------------------------------------------------

 OUTPUT CONTROL FOR STRESS PERIOD    5   TIME STEP    7
    PRINT BUDGET
    SAVE BUDGET
 UBDSV1 SAVING "         STORAGE" ON UNIT 102 AT TIME STEP 7, STRESS PERIOD 5
 UBDSV2 SAVING "   CONSTANT HEAD" ON UNIT 102 AT TIME STEP 7, STRESS PERIOD 5
 UBDSV1 SAVING "FLOW RIGHT FACE " ON UNIT 102 AT TIME STEP 7, STRESS PERIOD 5
 UBDSV1 SAVING "FLOW FRONT FACE " ON UNIT 102 AT TIME STEP 7, STRESS PERIOD 5

  HEAD DEP BOUNDS   PERIOD    5   STEP     7
 BOUNDARY      1   LAYER   1   ROW    13   COL     1   RATE   -0.295713    
 BOUNDARY      2   LAYER   1   ROW    14   COL     9   RATE    0.285475    



 STREAM LISTING     PERIOD      5   STEP        7

 LAYER ROW COL. STREAM  RCH.  FLOW INTO     FLOW TO   FLOW OUT OF   OVRLND.     DIRECT     STREAM       STREAM     STREAM     STREAM   STREAMBED  STREAMBED
                SEG.NO.  NO.  STRM. RCH.    AQUIFER    STRM. RCH.    RUNOFF     PRECIP       ET          HEAD       DEPTH      WIDTH   CONDCTNC.   GRADIENT

   1    1    1     1     1    2.8000E+01  2.5860E-01   2.7742E+01  0.000E+00  0.000E+00  0.000E+00  1.09427E+03  1.221E+00  1.361E+01  6.126E-02  1.407E+00
   1    2    2     1     2    2.7742E+01  4.0002E-01   2.7341E+01  0.000E+00  0.000E+00  0.000E+00  1.08928E+03  1.217E+00  1.355E+01  9.487E-02  1.406E+00
   1    3    3     1     3    2.7341E+01  3.4070E-01   2.7001E+01  0.000E+00  0.000E+00  0.000E+00  1.08363E+03  1.212E+00  1.348E+01  8.090E-02  1.404E+00
   1    3    4     1     4    2.7001E+01  3.1335E-01   2.6687E+01  0.000E+00  0.000E+00  0.000E+00  1.07861E+03  1.207E+00  1.342E+01  7.448E-02  1.402E+00
   1    4    5     2     1    2.4687E+01  3.2711E-01   2.4360E+01  0.000E+00  0.000E+00  0.000E+00  1.07313E+03  1.194E+00  1.200E+01  7.800E-02  1.398E+00
   1    5    6     2     2    2.4360E+01  2.5111E-01   2.4109E+01  0.000E+00  0.000E+00  0.000E+00  1.06769E+03  1.185E+00  1.200E+01  6.000E-02  1.395E+00
   1    6    6     2     3    2.4109E+01  2.5067E-01   2.3859E+01  0.000E+00  0.000E+00  0.000E+00  1.06297E+03  1.178E+00  1.200E+01  6.000E-02  1.393E+00
   1    7    6     2     4    2.3859E+01  2.5023E-01   2.3608E+01  0.000E+00  0.000E+00  0.000E+00  1.05825E+03  1.170E+00  1.200E+01  6.000E-02  1.390E+00
   1    8    6     2     5    2.3608E+01  2.4978E-01   2.3359E+01  0.000E+00  0.000E+00  0.000E+00  1.05352E+03  1.163E+00  1.200E+01  6.000E-02  1.388E+00
   1    3    5     3     1    2.0000E+00  2.8252E-01   1.7175E+00  0.000E+00  0.000E+00  0.000E+00  1.07555E+03  1.909E+00  9.636E+00  7.227E-02  1.955E+00
   1    3    6     3     2    1.7175E+00  2.4905E-01   1.4684E+00  0.000E+00  0.000E+00  0.000E+00  1.07264E+03  1.727E+00  8.909E+00  6.682E-02  1.864E+00
   1    3    7     3     3    1.4684E+00  1.9718E-01   1.2712E+00  0.000E+00  0.000E+00  0.000E+00  1.06987E+03  1.555E+00  8.218E+00  5.547E-02  1.777E+00
   1    4    8     3     4    1.2712E+00  2.2567E-01   1.0456E+00  0.000E+00  0.000E+00  0.000E+00  1.06682E+03  1.364E+00  7.455E+00  6.709E-02  1.682E+00
   1    5    8     3     5    1.0456E+00  1.5790E-01   8.8768E-01  0.000E+00  0.000E+00  0.000E+00  1.06362E+03  1.164E+00  6.655E+00  4.991E-02  1.582E+00
   1    6    8     3     6    8.8768E-01  5.5980E-02   8.3170E-01  0.000E+00  0.000E+00  0.000E+00  1.06158E+03  1.036E+00  6.145E+00  1.844E-02  1.518E+00
   1    5   10     4     1    1.0000E+01  9.0919E-02   9.9091E+00  0.000E+00  0.000E+00  0.000E+00  1.07836E+03  6.368E-01  1.000E+01  2.500E-02  1.212E+00
   1    5    9     4     2    9.9091E+00  1.8158E-01   9.7275E+00  0.000E+00  0.000E+00  0.000E+00  1.07154E+03  6.315E-01  1.000E+01  5.000E-02  1.211E+00
   1    6    8     4     3    9.7275E+00  1.2689E-01   9.6006E+00  0.000E+00  0.000E+00  0.000E+00  1.06381E+03  6.256E-01  1.000E+01  3.500E-02  1.209E+00
   1    6    8     5     1    1.0432E+01  2.2686E-01   1.0205E+01  0.000E+00  0.000E+00  0.000E+00  1.05868E+03  6.790E-01  1.542E+01  6.166E-02  1.226E+00
   1    7    7     5     2    1.0205E+01  2.7894E-01   9.9265E+00  0.000E+00  0.000E+00  0.000E+00  1.05417E+03  6.732E-01  1.519E+01  7.594E-02  1.224E+00
   1    8    7     5     3    9.9265E+00  1.9221E-01   9.7343E+00  0.000E+00  0.000E+00  0.000E+00  1.04992E+03  6.676E-01  1.497E+01  5.241E-02  1.223E+00
   1    8    6     5     4    9.7343E+00  1.3577E-01   9.5985E+00  0.000E+00  0.000E+00  0.000E+00  1.04691E+03  6.637E-01  1.482E+01  3.706E-02  1.221E+00
   1    9    6     6     1    3.2957E+01  2.6627E-01   3.2691E+01  0.000E+00  0.000E+00  0.000E+00  1.04417E+03  1.438E+00  1.200E+01  6.000E-02  1.479E+00
   1   10    7     6     2    3.2691E+01  2.6585E-01   3.2425E+01  0.000E+00  0.000E+00  0.000E+00  1.03961E+03  1.431E+00  1.200E+01  6.000E-02  1.477E+00
   1   11    7     6     3    3.2425E+01  2.6542E-01   3.2160E+01  0.000E+00  0.000E+00  0.000E+00  1.03506E+03  1.424E+00  1.200E+01  6.000E-02  1.475E+00
   1   12    7     6     4    3.2160E+01  2.6500E-01   3.1895E+01  0.000E+00  0.000E+00  0.000E+00  1.03051E+03  1.417E+00  1.200E+01  6.000E-02  1.472E+00
   1   13    7     6     5    3.1895E+01  3.4517E-03   3.1891E+01  0.000E+00  0.000E+00  0.000E+00  1.02732E+03  1.413E+00  1.200E+01  2.400E-02  4.794E-02
   1   14    9     7     1    1.5000E+02  1.3316E+00   1.4867E+02  0.000E+00  0.000E+00  0.000E+00  1.03987E+03  2.288E+00  5.529E+01  5.593E-01  7.936E-01
   1   13    8     7     2    1.4867E+02  1.8137E+00   1.4685E+02  0.000E+00  0.000E+00  0.000E+00  1.03478E+03  2.279E+00  5.526E+01  6.148E-01  9.834E-01
   1   13    7     7     3    1.4685E+02  1.4027E+00   1.4545E+02  0.000E+00  0.000E+00  0.000E+00  1.02969E+03  2.271E+00  5.522E+01  5.585E-01  8.372E-01
   1   13    6     8     1    1.7734E+02  8.5941E-01   1.7648E+02  0.000E+00  0.000E+00  0.000E+00  1.02487E+03  2.997E+00  4.345E+01  4.428E-01  6.470E-01
   1   13    5     8     2    1.7648E+02  9.4662E-02   1.7639E+02  0.000E+00  0.000E+00  0.000E+00  1.01862E+03  2.994E+00  4.341E+01  4.423E-01  7.133E-02
   1   13    4     8     3    1.7639E+02 -3.0053E+00   1.7939E+02  0.000E+00  0.000E+00  0.000E+00  1.01238E+03  3.003E+00  4.354E+01  4.437E+00 -2.258E-01
   1   13    3     8     4    1.7939E+02 -4.1137E+00   1.8351E+02  0.000E+00  0.000E+00  0.000E+00  1.00615E+03  3.025E+00  4.387E+01  4.470E+00 -3.068E-01
   1   13    2     8     5    1.8351E+02 -3.0725E+00   1.8658E+02  0.000E+00  0.000E+00  0.000E+00  9.99923E+02  3.048E+00  4.419E+01  4.503E+00 -2.274E-01
   1   13    1     8     6    1.8658E+02 -2.2896E+00   1.8887E+02  0.000E+00  0.000E+00  0.000E+00  9.94939E+02  3.064E+00  4.443E+01  2.716E+00 -2.809E-01



 UBDSV3 SAVING "           GW ET" ON UNIT  61 AT TIME STEP 7, STRESS PERIOD 5
 UBDSV3 SAVING "    UZF RECHARGE" ON UNIT  61 AT TIME STEP 7, STRESS PERIOD 5
 UBDSV3 SAVING " SURFACE LEAKAGE" ON UNIT  61 AT TIME STEP 7, STRESS PERIOD 5
 UBDSV3 SAVING "       HORT+DUNN" ON UNIT  61 AT TIME STEP 7, STRESS PERIOD 5
 UBDSV3 SAVING "  STORAGE CHANGE" ON UNIT  61 AT TIME STEP 7, STRESS PERIOD 5


UNSATURATED ZONE PACKAGE VOLUMETRIC BUDGET FOR  TIME STEP     7 STRESS PERIOD    5
  ------------------------------------------------------------------------------



     CUMULATIVE VOLUMES      L**3       RATES FOR THIS TIME STEP      L**3/T
     ------------------                 ------------------------

           IN:                                      IN:
           ---                                      ---
        INFILTRATION =     9565322.5034          INFILTRATION =           4.5671

          OUT:                                     OUT:
          ----                                     ----
              UZF ET =     9405887.4326                UZF ET =           4.5675
        UZF RECHARGE =       73224.0000          UZF RECHARGE =       0.0000E+00

            IN - OUT =       86211.0709              IN - OUT =      -4.1771E-04

          STORAGE:                                 STORAGE:
          --------                                 --------
      STORAGE CHANGE =       86211.0863        STORAGE CHANGE =      -4.1778E-04

 PERCENT DISCREPANCY IS DIFFERENCE BETWEEN IN-OUT MINUS CHANGE IN STORAGE
 DIVIDED BY THE AVERAGE OF IN AND OUT TIMES 100

 PERCENT DISCREPANCY =           0.00     PERCENT DISCREPANCY =           0.00






 

            AG WELLS      PERIOD    5   STEP   7
 AG WELL      1   LAYER   1   ROW     6   COL     4   RATE   -0.619930    
 AG WELL      2   LAYER   1   ROW     6   COL     5   RATE   -0.619930    
 AG WELL      3   LAYER   1   ROW     7   COL     4   RATE   -0.619930    
 AG WELL      4   LAYER   1   ROW     7   COL     5   RATE   -0.619930    
 AG WELL      5   LAYER   1   ROW     8   COL     4   RATE   -0.619930    
 AG WELL      6   LAYER   1   ROW     8   COL     5   RATE   -0.619930    
 
 

        GW IRRIGATION     PERIOD    5   STEP   7
 AG WELL      1   ROW     6   COL     4   RATE    0.619930    
 AG WELL      2   ROW     6   COL     5   RATE    0.619930    
 AG WELL      3   ROW     7   COL     4   RATE    0.619930    
 AG WELL      4   ROW     7   COL     5   RATE    0.619930    
 AG WELL      5   ROW     8   COL     4   RATE    0.619930    
 AG WELL      6   ROW     8   COL     5   RATE    0.619930    
 
1
  VOLUMETRIC BUDGET FOR AGRICULTURAL FIELDS AT  END OF TIME STEP    7, STRESS PERIOD   5
  ------------------------------------------------------------------------------

     CUMULATIVE VOLUMES      L**3       RATES FOR THIS TIME STEP      L**3/T
     ------------------                 ------------------------

           IN:                                      IN:
           ---                                      ---
               AG WELLS  =     2285241.5000                 AG WELLS  =           3.7196
      DIVERSION SEGMENTS =           0.0000        DIVERSION SEGMENTS =           0.0000
       IRRIGATION PONDS  =           0.0000         IRRIGATION PONDS  =           0.0000
           GW IRRIGATION =           0.0000             GW IRRIGATION =           0.0000
           SW IRRIGATION =           0.0000             SW IRRIGATION =           0.0000
        SYSTEM LOSSES GW =           0.0000          SYSTEM LOSSES GW =           0.0000
        SYSTEM LOSSES SW =           0.0000          SYSTEM LOSSES SW =           0.0000

                TOTAL IN =     2285241.5000                  TOTAL IN =           3.7196

          OUT:                                     OUT:
          ----                                     ----
               AG WELLS  =           0.0000                 AG WELLS  =           0.0000
      DIVERSION SEGMENTS =           0.0000        DIVERSION SEGMENTS =           0.0000
       IRRIGATION PONDS  =           0.0000         IRRIGATION PONDS  =           0.0000
           GW IRRIGATION =     2285241.5000             GW IRRIGATION =           3.7196
           SW IRRIGATION =           0.0000             SW IRRIGATION =           0.0000
        SYSTEM LOSSES GW =           0.0000          SYSTEM LOSSES GW =           0.0000
        SYSTEM LOSSES SW =           0.0000          SYSTEM LOSSES SW =           0.0000

               TOTAL OUT =     2285241.5000                 TOTAL OUT =           3.7196

                IN - OUT =           0.0000                  IN - OUT =           0.0000

     PERCENT DISCREPANCY =           0.00         PERCENT DISCREPANCY =           0.00



1
  VOLUMETRIC BUDGET FOR ENTIRE MODEL AT END OF TIME STEP    7, STRESS PERIOD   5
  ------------------------------------------------------------------------------

     CUMULATIVE VOLUMES      L**3       RATES FOR THIS TIME STEP      L**3/T
     ------------------                 ------------------------

           IN:                                      IN:
           ---                                      ---
             STORAGE     =     8340789.0000               STORAGE     =           5.9763
       CONSTANT HEAD     =           0.0000         CONSTANT HEAD     =           0.0000
     HEAD DEP BOUNDS     =     2451806.7500       HEAD DEP BOUNDS     =           0.2855
      STREAM LEAKAGE     =   106098064.0000        STREAM LEAKAGE     =          11.6112
        UZF RECHARGE     =       73223.9531          UZF RECHARGE     =           0.0000
               GW ET     =           0.0000                 GW ET     =           0.0000
     SURFACE LEAKAGE     =           0.0000       SURFACE LEAKAGE     =           0.0000
           AG WELLS      =           0.0000             AG WELLS      =           0.0000

                TOTAL IN =   116963880.0000                  TOTAL IN =          17.8729

          OUT:                                     OUT:
          ----                                     ----
             STORAGE     =    23196268.0000               STORAGE     =           1.2205
       CONSTANT HEAD     =           0.0000         CONSTANT HEAD     =           0.0000
     HEAD DEP BOUNDS     =     2509607.0000       HEAD DEP BOUNDS     =           0.2957
      STREAM LEAKAGE     =    88825272.0000        STREAM LEAKAGE     =          12.4811
        UZF RECHARGE     =           0.0000          UZF RECHARGE     =           0.0000
               GW ET     =      152559.1250                 GW ET     =           0.1559
     SURFACE LEAKAGE     =           0.0000       SURFACE LEAKAGE     =           0.0000
           AG WELLS      =     2285241.5000             AG WELLS      =           3.7196

               TOTAL OUT =   116968952.0000                 TOTAL OUT =          17.8728

                IN - OUT =       -5072.0000                  IN - OUT =       1.4496E-04

     PERCENT DISCREPANCY =          -0.00         PERCENT DISCREPANCY =           0.00






         TIME SUMMARY AT END OF TIME STEP    7 IN STRESS PERIOD    5
                    SECONDS     MINUTES      HOURS       DAYS        YEARS
                    -----------------------------------------------------------
   TIME STEP LENGTH  87667.      1461.1      24.352      1.0147     2.77799E-03
 STRESS PERIOD TIME 6.13667E+05  10228.      170.46      7.1026     1.94459E-02
         TOTAL TIME 8.59006E+06 1.43168E+05  2386.1      99.422     0.27220    
1
 
 SOLVING FOR HEAD 
                                                   Max.-Head-Change                         Max.-Flux-Residual
  Residual-Control   Outer-Iter.   Inner-Iter.     Column Row Layer    Maximum-Head-Change  Column Row Layer    Maximum-Flux-Residual          L2-NORM 
          0                 1           2             2   13     1      -0.9111260988E-02       2   13    1        -0.5129294920E+00      0.9967462189E+00
          0                 2           2             4    7     1      -0.1161897313E-01       5    6    1        -0.6325394413E+00      0.1542842515E+01
          0                 3           2             4    7     1       0.7912082460E-03       5    6    1         0.4427351337E-01      0.1079779231E+00
          0                 4           1             4    7     1      -0.3148292001E-04       5    6    1        -0.1810379315E-02      0.4414645468E-02

    ------------------------------------------------
       NWT REQUIRED            4 OUTER ITERATIONS 
       AND A TOTAL OF          7 INNER ITERATIONS.
    ------------------------------------------------

 OUTPUT CONTROL FOR STRESS PERIOD    5   TIME STEP    8
    PRINT BUDGET
    SAVE BUDGET
 UBDSV1 SAVING "         STORAGE" ON UNIT 102 AT TIME STEP 8, STRESS PERIOD 5
 UBDSV2 SAVING "   CONSTANT HEAD" ON UNIT 102 AT TIME STEP 8, STRESS PERIOD 5
 UBDSV1 SAVING "FLOW RIGHT FACE " ON UNIT 102 AT TIME STEP 8, STRESS PERIOD 5
 UBDSV1 SAVING "FLOW FRONT FACE " ON UNIT 102 AT TIME STEP 8, STRESS PERIOD 5

  HEAD DEP BOUNDS   PERIOD    5   STEP     8
 BOUNDARY      1   LAYER   1   ROW    13   COL     1   RATE   -0.295504    
 BOUNDARY      2   LAYER   1   ROW    14   COL     9   RATE    0.285475    



 STREAM LISTING     PERIOD      5   STEP        8

 LAYER ROW COL. STREAM  RCH.  FLOW INTO     FLOW TO   FLOW OUT OF   OVRLND.     DIRECT     STREAM       STREAM     STREAM     STREAM   STREAMBED  STREAMBED
                SEG.NO.  NO.  STRM. RCH.    AQUIFER    STRM. RCH.    RUNOFF     PRECIP       ET          HEAD       DEPTH      WIDTH   CONDCTNC.   GRADIENT

   1    1    1     1     1    2.8000E+01  2.5860E-01   2.7742E+01  0.000E+00  0.000E+00  0.000E+00  1.09427E+03  1.221E+00  1.361E+01  6.126E-02  1.407E+00
   1    2    2     1     2    2.7742E+01  4.0002E-01   2.7341E+01  0.000E+00  0.000E+00  0.000E+00  1.08928E+03  1.217E+00  1.355E+01  9.487E-02  1.406E+00
   1    3    3     1     3    2.7341E+01  3.4070E-01   2.7001E+01  0.000E+00  0.000E+00  0.000E+00  1.08363E+03  1.212E+00  1.348E+01  8.090E-02  1.404E+00
   1    3    4     1     4    2.7001E+01  3.1335E-01   2.6687E+01  0.000E+00  0.000E+00  0.000E+00  1.07861E+03  1.207E+00  1.342E+01  7.448E-02  1.402E+00
   1    4    5     2     1    2.4687E+01  3.2711E-01   2.4360E+01  0.000E+00  0.000E+00  0.000E+00  1.07313E+03  1.194E+00  1.200E+01  7.800E-02  1.398E+00
   1    5    6     2     2    2.4360E+01  2.5111E-01   2.4109E+01  0.000E+00  0.000E+00  0.000E+00  1.06769E+03  1.185E+00  1.200E+01  6.000E-02  1.395E+00
   1    6    6     2     3    2.4109E+01  2.5067E-01   2.3859E+01  0.000E+00  0.000E+00  0.000E+00  1.06297E+03  1.178E+00  1.200E+01  6.000E-02  1.393E+00
   1    7    6     2     4    2.3859E+01  2.5023E-01   2.3608E+01  0.000E+00  0.000E+00  0.000E+00  1.05825E+03  1.170E+00  1.200E+01  6.000E-02  1.390E+00
   1    8    6     2     5    2.3608E+01  2.4978E-01   2.3359E+01  0.000E+00  0.000E+00  0.000E+00  1.05352E+03  1.163E+00  1.200E+01  6.000E-02  1.388E+00
   1    3    5     3     1    2.0000E+00  2.8252E-01   1.7175E+00  0.000E+00  0.000E+00  0.000E+00  1.07555E+03  1.909E+00  9.636E+00  7.227E-02  1.955E+00
   1    3    6     3     2    1.7175E+00  2.4905E-01   1.4684E+00  0.000E+00  0.000E+00  0.000E+00  1.07264E+03  1.727E+00  8.909E+00  6.682E-02  1.864E+00
   1    3    7     3     3    1.4684E+00  1.9718E-01   1.2712E+00  0.000E+00  0.000E+00  0.000E+00  1.06987E+03  1.555E+00  8.218E+00  5.547E-02  1.777E+00
   1    4    8     3     4    1.2712E+00  2.2567E-01   1.0456E+00  0.000E+00  0.000E+00  0.000E+00  1.06682E+03  1.364E+00  7.455E+00  6.709E-02  1.682E+00
   1    5    8     3     5    1.0456E+00  1.5790E-01   8.8768E-01  0.000E+00  0.000E+00  0.000E+00  1.06362E+03  1.164E+00  6.655E+00  4.991E-02  1.582E+00
   1    6    8     3     6    8.8768E-01  5.5980E-02   8.3170E-01  0.000E+00  0.000E+00  0.000E+00  1.06158E+03  1.036E+00  6.145E+00  1.844E-02  1.518E+00
   1    5   10     4     1    1.0000E+01  9.0919E-02   9.9091E+00  0.000E+00  0.000E+00  0.000E+00  1.07836E+03  6.368E-01  1.000E+01  2.500E-02  1.212E+00
   1    5    9     4     2    9.9091E+00  1.8158E-01   9.7275E+00  0.000E+00  0.000E+00  0.000E+00  1.07154E+03  6.315E-01  1.000E+01  5.000E-02  1.211E+00
   1    6    8     4     3    9.7275E+00  1.2689E-01   9.6006E+00  0.000E+00  0.000E+00  0.000E+00  1.06381E+03  6.256E-01  1.000E+01  3.500E-02  1.209E+00
   1    6    8     5     1    1.0432E+01  2.2686E-01   1.0205E+01  0.000E+00  0.000E+00  0.000E+00  1.05868E+03  6.790E-01  1.542E+01  6.166E-02  1.226E+00
   1    7    7     5     2    1.0205E+01  2.7894E-01   9.9265E+00  0.000E+00  0.000E+00  0.000E+00  1.05417E+03  6.732E-01  1.519E+01  7.594E-02  1.224E+00
   1    8    7     5     3    9.9265E+00  1.9221E-01   9.7343E+00  0.000E+00  0.000E+00  0.000E+00  1.04992E+03  6.676E-01  1.497E+01  5.241E-02  1.223E+00
   1    8    6     5     4    9.7343E+00  1.3577E-01   9.5985E+00  0.000E+00  0.000E+00  0.000E+00  1.04691E+03  6.637E-01  1.482E+01  3.706E-02  1.221E+00
   1    9    6     6     1    3.2957E+01  2.6627E-01   3.2691E+01  0.000E+00  0.000E+00  0.000E+00  1.04417E+03  1.438E+00  1.200E+01  6.000E-02  1.479E+00
   1   10    7     6     2    3.2691E+01  2.6585E-01   3.2425E+01  0.000E+00  0.000E+00  0.000E+00  1.03961E+03  1.431E+00  1.200E+01  6.000E-02  1.477E+00
   1   11    7     6     3    3.2425E+01  2.6542E-01   3.2160E+01  0.000E+00  0.000E+00  0.000E+00  1.03506E+03  1.424E+00  1.200E+01  6.000E-02  1.475E+00
   1   12    7     6     4    3.2160E+01  2.6500E-01   3.1895E+01  0.000E+00  0.000E+00  0.000E+00  1.03051E+03  1.417E+00  1.200E+01  6.000E-02  1.472E+00
   1   13    7     6     5    3.1895E+01  3.4439E-03   3.1891E+01  0.000E+00  0.000E+00  0.000E+00  1.02732E+03  1.413E+00  1.200E+01  2.400E-02  4.783E-02
   1   14    9     7     1    1.5000E+02  1.3317E+00   1.4867E+02  0.000E+00  0.000E+00  0.000E+00  1.03987E+03  2.288E+00  5.529E+01  5.593E-01  7.936E-01
   1   13    8     7     2    1.4867E+02  1.8136E+00   1.4685E+02  0.000E+00  0.000E+00  0.000E+00  1.03478E+03  2.279E+00  5.526E+01  6.148E-01  9.833E-01
   1   13    7     7     3    1.4685E+02  1.4025E+00   1.4545E+02  0.000E+00  0.000E+00  0.000E+00  1.02969E+03  2.271E+00  5.522E+01  5.585E-01  8.371E-01
   1   13    6     8     1    1.7734E+02  8.5998E-01   1.7648E+02  0.000E+00  0.000E+00  0.000E+00  1.02487E+03  2.997E+00  4.345E+01  4.428E-01  6.474E-01
   1   13    5     8     2    1.7648E+02  9.5257E-02   1.7639E+02  0.000E+00  0.000E+00  0.000E+00  1.01862E+03  2.994E+00  4.341E+01  4.423E-01  7.178E-02
   1   13    4     8     3    1.7639E+02 -2.9725E+00   1.7936E+02  0.000E+00  0.000E+00  0.000E+00  1.01238E+03  3.003E+00  4.354E+01  4.437E+00 -2.233E-01
   1   13    3     8     4    1.7936E+02 -4.0807E+00   1.8344E+02  0.000E+00  0.000E+00  0.000E+00  1.00615E+03  3.025E+00  4.386E+01  4.470E+00 -3.043E-01
   1   13    2     8     5    1.8344E+02 -3.0369E+00   1.8648E+02  0.000E+00  0.000E+00  0.000E+00  9.99922E+02  3.047E+00  4.418E+01  4.502E+00 -2.248E-01
   1   13    1     8     6    1.8648E+02 -2.2759E+00   1.8875E+02  0.000E+00  0.000E+00  0.000E+00  9.94938E+02  3.063E+00  4.442E+01  2.716E+00 -2.793E-01



 UBDSV3 SAVING "           GW ET" ON UNIT  61 AT TIME STEP 8, STRESS PERIOD 5
 UBDSV3 SAVING "    UZF RECHARGE" ON UNIT  61 AT TIME STEP 8, STRESS PERIOD 5
 UBDSV3 SAVING " SURFACE LEAKAGE" ON UNIT  61 AT TIME STEP 8, STRESS PERIOD 5
 UBDSV3 SAVING "       HORT+DUNN" ON UNIT  61 AT TIME STEP 8, STRESS PERIOD 5
 UBDSV3 SAVING "  STORAGE CHANGE" ON UNIT  61 AT TIME STEP 8, STRESS PERIOD 5


UNSATURATED ZONE PACKAGE VOLUMETRIC BUDGET FOR  TIME STEP     8 STRESS PERIOD    5
  ------------------------------------------------------------------------------



     CUMULATIVE VOLUMES      L**3       RATES FOR THIS TIME STEP      L**3/T
     ------------------                 ------------------------

           IN:                                      IN:
           ---                                      ---
        INFILTRATION =     9965703.9837          INFILTRATION =           4.5671

          OUT:                                     OUT:
          ----                                     ----
              UZF ET =     9806304.9128                UZF ET =           4.5675
        UZF RECHARGE =       73224.0000          UZF RECHARGE =       0.0000E+00

            IN - OUT =       86175.0709              IN - OUT =      -4.1056E-04

          STORAGE:                                 STORAGE:
          --------                                 --------
      STORAGE CHANGE =       86175.0690        STORAGE CHANGE =      -4.1084E-04

 PERCENT DISCREPANCY IS DIFFERENCE BETWEEN IN-OUT MINUS CHANGE IN STORAGE
 DIVIDED BY THE AVERAGE OF IN AND OUT TIMES 100

 PERCENT DISCREPANCY =           0.00     PERCENT DISCREPANCY =           0.00






 

            AG WELLS      PERIOD    5   STEP   8
 AG WELL      1   LAYER   1   ROW     6   COL     4   RATE   -0.619932    
 AG WELL      2   LAYER   1   ROW     6   COL     5   RATE   -0.619932    
 AG WELL      3   LAYER   1   ROW     7   COL     4   RATE   -0.619932    
 AG WELL      4   LAYER   1   ROW     7   COL     5   RATE   -0.619932    
 AG WELL      5   LAYER   1   ROW     8   COL     4   RATE   -0.619932    
 AG WELL      6   LAYER   1   ROW     8   COL     5   RATE   -0.619932    
 
 

        GW IRRIGATION     PERIOD    5   STEP   8
 AG WELL      1   ROW     6   COL     4   RATE    0.619932    
 AG WELL      2   ROW     6   COL     5   RATE    0.619932    
 AG WELL      3   ROW     7   COL     4   RATE    0.619932    
 AG WELL      4   ROW     7   COL     5   RATE    0.619932    
 AG WELL      5   ROW     8   COL     4   RATE    0.619932    
 AG WELL      6   ROW     8   COL     5   RATE    0.619932    
 
1
  VOLUMETRIC BUDGET FOR AGRICULTURAL FIELDS AT  END OF TIME STEP    8, STRESS PERIOD   5
  ------------------------------------------------------------------------------

     CUMULATIVE VOLUMES      L**3       RATES FOR THIS TIME STEP      L**3/T
     ------------------                 ------------------------

           IN:                                      IN:
           ---                                      ---
               AG WELLS  =     2611325.5000                 AG WELLS  =           3.7196
      DIVERSION SEGMENTS =           0.0000        DIVERSION SEGMENTS =           0.0000
       IRRIGATION PONDS  =           0.0000         IRRIGATION PONDS  =           0.0000
           GW IRRIGATION =           0.0000             GW IRRIGATION =           0.0000
           SW IRRIGATION =           0.0000             SW IRRIGATION =           0.0000
        SYSTEM LOSSES GW =           0.0000          SYSTEM LOSSES GW =           0.0000
        SYSTEM LOSSES SW =           0.0000          SYSTEM LOSSES SW =           0.0000

                TOTAL IN =     2611325.5000                  TOTAL IN =           3.7196

          OUT:                                     OUT:
          ----                                     ----
               AG WELLS  =           0.0000                 AG WELLS  =           0.0000
      DIVERSION SEGMENTS =           0.0000        DIVERSION SEGMENTS =           0.0000
       IRRIGATION PONDS  =           0.0000         IRRIGATION PONDS  =           0.0000
           GW IRRIGATION =     2611325.5000             GW IRRIGATION =           3.7196
           SW IRRIGATION =           0.0000             SW IRRIGATION =           0.0000
        SYSTEM LOSSES GW =           0.0000          SYSTEM LOSSES GW =           0.0000
        SYSTEM LOSSES SW =           0.0000          SYSTEM LOSSES SW =           0.0000

               TOTAL OUT =     2611325.5000                 TOTAL OUT =           3.7196

                IN - OUT =           0.0000                  IN - OUT =           0.0000

     PERCENT DISCREPANCY =           0.00         PERCENT DISCREPANCY =           0.00



1
  VOLUMETRIC BUDGET FOR ENTIRE MODEL AT END OF TIME STEP    8, STRESS PERIOD   5
  ------------------------------------------------------------------------------

     CUMULATIVE VOLUMES      L**3       RATES FOR THIS TIME STEP      L**3/T
     ------------------                 ------------------------

           IN:                                      IN:
           ---                                      ---
             STORAGE     =     8850130.0000               STORAGE     =           5.8100
       CONSTANT HEAD     =           0.0000         CONSTANT HEAD     =           0.0000
     HEAD DEP BOUNDS     =     2476833.5000       HEAD DEP BOUNDS     =           0.2855
      STREAM LEAKAGE     =   107116048.0000        STREAM LEAKAGE     =          11.6120
        UZF RECHARGE     =       73223.9531          UZF RECHARGE     =           0.0000
               GW ET     =           0.0000                 GW ET     =           0.0000
     SURFACE LEAKAGE     =           0.0000       SURFACE LEAKAGE     =           0.0000
           AG WELLS      =           0.0000             AG WELLS      =           0.0000

                TOTAL IN =   118516232.0000                  TOTAL IN =          17.7075

          OUT:                                     OUT:
          ----                                     ----
             STORAGE     =    23300508.0000               STORAGE     =           1.1890
       CONSTANT HEAD     =           0.0000         CONSTANT HEAD     =           0.0000
     HEAD DEP BOUNDS     =     2535512.7500       HEAD DEP BOUNDS     =           0.2955
      STREAM LEAKAGE     =    89909360.0000        STREAM LEAKAGE     =          12.3660
        UZF RECHARGE     =           0.0000          UZF RECHARGE     =           0.0000
               GW ET     =      164585.5156                 GW ET     =           0.1372
     SURFACE LEAKAGE     =           0.0000       SURFACE LEAKAGE     =           0.0000
           AG WELLS      =     2611325.5000             AG WELLS      =           3.7196

               TOTAL OUT =   118521288.0000                 TOTAL OUT =          17.7073

                IN - OUT =       -5056.0000                  IN - OUT =       1.4305E-04

     PERCENT DISCREPANCY =          -0.00         PERCENT DISCREPANCY =           0.00






         TIME SUMMARY AT END OF TIME STEP    8 IN STRESS PERIOD    5
                    SECONDS     MINUTES      HOURS       DAYS        YEARS
                    -----------------------------------------------------------
   TIME STEP LENGTH  87667.      1461.1      24.352      1.0147     2.77799E-03
 STRESS PERIOD TIME 7.01333E+05  11689.      194.81      8.1173     2.22239E-02
         TOTAL TIME 8.67773E+06 1.44629E+05  2410.5      100.44     0.27498    
1
 
 SOLVING FOR HEAD 
                                                   Max.-Head-Change                         Max.-Flux-Residual
  Residual-Control   Outer-Iter.   Inner-Iter.     Column Row Layer    Maximum-Head-Change  Column Row Layer    Maximum-Flux-Residual          L2-NORM 
          0                 1           2             2   13     1      -0.8429135232E-02       2   13    1        -0.4745481081E+00      0.9314013205E+00
          0                 2           2             4    7     1      -0.1162774512E-01       5    6    1        -0.6336900693E+00      0.1544609422E+01
          0                 3           2             4    7     1       0.7918055926E-03       5    6    1         0.4435450409E-01      0.1081047647E+00
          0                 4           1             4    7     1      -0.3150668879E-04       5    6    1        -0.1813735176E-02      0.4420363292E-02

    ------------------------------------------------
       NWT REQUIRED            4 OUTER ITERATIONS 
       AND A TOTAL OF          7 INNER ITERATIONS.
    ------------------------------------------------

 OUTPUT CONTROL FOR STRESS PERIOD    5   TIME STEP    9
    PRINT BUDGET
    SAVE BUDGET
 UBDSV1 SAVING "         STORAGE" ON UNIT 102 AT TIME STEP 9, STRESS PERIOD 5
 UBDSV2 SAVING "   CONSTANT HEAD" ON UNIT 102 AT TIME STEP 9, STRESS PERIOD 5
 UBDSV1 SAVING "FLOW RIGHT FACE " ON UNIT 102 AT TIME STEP 9, STRESS PERIOD 5
 UBDSV1 SAVING "FLOW FRONT FACE " ON UNIT 102 AT TIME STEP 9, STRESS PERIOD 5

  HEAD DEP BOUNDS   PERIOD    5   STEP     9
 BOUNDARY      1   LAYER   1   ROW    13   COL     1   RATE   -0.295303    
 BOUNDARY      2   LAYER   1   ROW    14   COL     9   RATE    0.285476    



 STREAM LISTING     PERIOD      5   STEP        9

 LAYER ROW COL. STREAM  RCH.  FLOW INTO     FLOW TO   FLOW OUT OF   OVRLND.     DIRECT     STREAM       STREAM     STREAM     STREAM   STREAMBED  STREAMBED
                SEG.NO.  NO.  STRM. RCH.    AQUIFER    STRM. RCH.    RUNOFF     PRECIP       ET          HEAD       DEPTH      WIDTH   CONDCTNC.   GRADIENT

   1    1    1     1     1    2.8000E+01  2.5860E-01   2.7742E+01  0.000E+00  0.000E+00  0.000E+00  1.09427E+03  1.221E+00  1.361E+01  6.126E-02  1.407E+00
   1    2    2     1     2    2.7742E+01  4.0002E-01   2.7341E+01  0.000E+00  0.000E+00  0.000E+00  1.08928E+03  1.217E+00  1.355E+01  9.487E-02  1.406E+00
   1    3    3     1     3    2.7341E+01  3.4070E-01   2.7001E+01  0.000E+00  0.000E+00  0.000E+00  1.08363E+03  1.212E+00  1.348E+01  8.090E-02  1.404E+00
   1    3    4     1     4    2.7001E+01  3.1335E-01   2.6687E+01  0.000E+00  0.000E+00  0.000E+00  1.07861E+03  1.207E+00  1.342E+01  7.448E-02  1.402E+00
   1    4    5     2     1    2.4687E+01  3.2711E-01   2.4360E+01  0.000E+00  0.000E+00  0.000E+00  1.07313E+03  1.194E+00  1.200E+01  7.800E-02  1.398E+00
   1    5    6     2     2    2.4360E+01  2.5111E-01   2.4109E+01  0.000E+00  0.000E+00  0.000E+00  1.06769E+03  1.185E+00  1.200E+01  6.000E-02  1.395E+00
   1    6    6     2     3    2.4109E+01  2.5067E-01   2.3859E+01  0.000E+00  0.000E+00  0.000E+00  1.06297E+03  1.178E+00  1.200E+01  6.000E-02  1.393E+00
   1    7    6     2     4    2.3859E+01  2.5023E-01   2.3608E+01  0.000E+00  0.000E+00  0.000E+00  1.05825E+03  1.170E+00  1.200E+01  6.000E-02  1.390E+00
   1    8    6     2     5    2.3608E+01  2.4978E-01   2.3359E+01  0.000E+00  0.000E+00  0.000E+00  1.05352E+03  1.163E+00  1.200E+01  6.000E-02  1.388E+00
   1    3    5     3     1    2.0000E+00  2.8252E-01   1.7175E+00  0.000E+00  0.000E+00  0.000E+00  1.07555E+03  1.909E+00  9.636E+00  7.227E-02  1.955E+00
   1    3    6     3     2    1.7175E+00  2.4905E-01   1.4684E+00  0.000E+00  0.000E+00  0.000E+00  1.07264E+03  1.727E+00  8.909E+00  6.682E-02  1.864E+00
   1    3    7     3     3    1.4684E+00  1.9718E-01   1.2712E+00  0.000E+00  0.000E+00  0.000E+00  1.06987E+03  1.555E+00  8.218E+00  5.547E-02  1.777E+00
   1    4    8     3     4    1.2712E+00  2.2567E-01   1.0456E+00  0.000E+00  0.000E+00  0.000E+00  1.06682E+03  1.364E+00  7.455E+00  6.709E-02  1.682E+00
   1    5    8     3     5    1.0456E+00  1.5790E-01   8.8768E-01  0.000E+00  0.000E+00  0.000E+00  1.06362E+03  1.164E+00  6.655E+00  4.991E-02  1.582E+00
   1    6    8     3     6    8.8768E-01  5.5980E-02   8.3170E-01  0.000E+00  0.000E+00  0.000E+00  1.06158E+03  1.036E+00  6.145E+00  1.844E-02  1.518E+00
   1    5   10     4     1    1.0000E+01  9.0919E-02   9.9091E+00  0.000E+00  0.000E+00  0.000E+00  1.07836E+03  6.368E-01  1.000E+01  2.500E-02  1.212E+00
   1    5    9     4     2    9.9091E+00  1.8158E-01   9.7275E+00  0.000E+00  0.000E+00  0.000E+00  1.07154E+03  6.315E-01  1.000E+01  5.000E-02  1.211E+00
   1    6    8     4     3    9.7275E+00  1.2689E-01   9.6006E+00  0.000E+00  0.000E+00  0.000E+00  1.06381E+03  6.256E-01  1.000E+01  3.500E-02  1.209E+00
   1    6    8     5     1    1.0432E+01  2.2686E-01   1.0205E+01  0.000E+00  0.000E+00  0.000E+00  1.05868E+03  6.790E-01  1.542E+01  6.166E-02  1.226E+00
   1    7    7     5     2    1.0205E+01  2.7894E-01   9.9265E+00  0.000E+00  0.000E+00  0.000E+00  1.05417E+03  6.732E-01  1.519E+01  7.594E-02  1.224E+00
   1    8    7     5     3    9.9265E+00  1.9221E-01   9.7343E+00  0.000E+00  0.000E+00  0.000E+00  1.04992E+03  6.676E-01  1.497E+01  5.241E-02  1.223E+00
   1    8    6     5     4    9.7343E+00  1.3577E-01   9.5985E+00  0.000E+00  0.000E+00  0.000E+00  1.04691E+03  6.637E-01  1.482E+01  3.706E-02  1.221E+00
   1    9    6     6     1    3.2957E+01  2.6627E-01   3.2691E+01  0.000E+00  0.000E+00  0.000E+00  1.04417E+03  1.438E+00  1.200E+01  6.000E-02  1.479E+00
   1   10    7     6     2    3.2691E+01  2.6585E-01   3.2425E+01  0.000E+00  0.000E+00  0.000E+00  1.03961E+03  1.431E+00  1.200E+01  6.000E-02  1.477E+00
   1   11    7     6     3    3.2425E+01  2.6542E-01   3.2160E+01  0.000E+00  0.000E+00  0.000E+00  1.03506E+03  1.424E+00  1.200E+01  6.000E-02  1.475E+00
   1   12    7     6     4    3.2160E+01  2.6500E-01   3.1895E+01  0.000E+00  0.000E+00  0.000E+00  1.03051E+03  1.417E+00  1.200E+01  6.000E-02  1.472E+00
   1   13    7     6     5    3.1895E+01  3.4365E-03   3.1891E+01  0.000E+00  0.000E+00  0.000E+00  1.02732E+03  1.413E+00  1.200E+01  2.400E-02  4.773E-02
   1   14    9     7     1    1.5000E+02  1.3317E+00   1.4867E+02  0.000E+00  0.000E+00  0.000E+00  1.03987E+03  2.288E+00  5.529E+01  5.593E-01  7.936E-01
   1   13    8     7     2    1.4867E+02  1.8134E+00   1.4685E+02  0.000E+00  0.000E+00  0.000E+00  1.03478E+03  2.279E+00  5.526E+01  6.148E-01  9.832E-01
   1   13    7     7     3    1.4685E+02  1.4024E+00   1.4545E+02  0.000E+00  0.000E+00  0.000E+00  1.02969E+03  2.271E+00  5.522E+01  5.585E-01  8.370E-01
   1   13    6     8     1    1.7734E+02  8.6053E-01   1.7648E+02  0.000E+00  0.000E+00  0.000E+00  1.02487E+03  2.997E+00  4.345E+01  4.428E-01  6.478E-01
   1   13    5     8     2    1.7648E+02  9.5860E-02   1.7639E+02  0.000E+00  0.000E+00  0.000E+00  1.01862E+03  2.994E+00  4.341E+01  4.423E-01  7.224E-02
   1   13    4     8     3    1.7639E+02 -2.9434E+00   1.7933E+02  0.000E+00  0.000E+00  0.000E+00  1.01238E+03  3.003E+00  4.354E+01  4.437E+00 -2.211E-01
   1   13    3     8     4    1.7933E+02 -4.0508E+00   1.8338E+02  0.000E+00  0.000E+00  0.000E+00  1.00615E+03  3.025E+00  4.386E+01  4.469E+00 -3.021E-01
   1   13    2     8     5    1.8338E+02 -3.0039E+00   1.8639E+02  0.000E+00  0.000E+00  0.000E+00  9.99922E+02  3.047E+00  4.418E+01  4.502E+00 -2.224E-01
   1   13    1     8     6    1.8639E+02 -2.2628E+00   1.8865E+02  0.000E+00  0.000E+00  0.000E+00  9.94938E+02  3.063E+00  4.441E+01  2.715E+00 -2.778E-01



 UBDSV3 SAVING "           GW ET" ON UNIT  61 AT TIME STEP 9, STRESS PERIOD 5
 UBDSV3 SAVING "    UZF RECHARGE" ON UNIT  61 AT TIME STEP 9, STRESS PERIOD 5
 UBDSV3 SAVING " SURFACE LEAKAGE" ON UNIT  61 AT TIME STEP 9, STRESS PERIOD 5
 UBDSV3 SAVING "       HORT+DUNN" ON UNIT  61 AT TIME STEP 9, STRESS PERIOD 5
 UBDSV3 SAVING "  STORAGE CHANGE" ON UNIT  61 AT TIME STEP 9, STRESS PERIOD 5


UNSATURATED ZONE PACKAGE VOLUMETRIC BUDGET FOR  TIME STEP     9 STRESS PERIOD    5
  ------------------------------------------------------------------------------



     CUMULATIVE VOLUMES      L**3       RATES FOR THIS TIME STEP      L**3/T
     ------------------                 ------------------------

           IN:                                      IN:
           ---                                      ---
        INFILTRATION =    10366085.9796          INFILTRATION =           4.5671

          OUT:                                     OUT:
          ----                                     ----
              UZF ET =    10206722.4126                UZF ET =           4.5675
        UZF RECHARGE =       73224.0000          UZF RECHARGE =       0.0000E+00

            IN - OUT =       86139.5670              IN - OUT =      -4.0513E-04

          STORAGE:                                 STORAGE:
          --------                                 --------
      STORAGE CHANGE =       86139.5850        STORAGE CHANGE =      -4.0476E-04

 PERCENT DISCREPANCY IS DIFFERENCE BETWEEN IN-OUT MINUS CHANGE IN STORAGE
 DIVIDED BY THE AVERAGE OF IN AND OUT TIMES 100

 PERCENT DISCREPANCY =           0.00     PERCENT DISCREPANCY =           0.00






 

            AG WELLS      PERIOD    5   STEP   9
 AG WELL      1   LAYER   1   ROW     6   COL     4   RATE   -0.619933    
 AG WELL      2   LAYER   1   ROW     6   COL     5   RATE   -0.619933    
 AG WELL      3   LAYER   1   ROW     7   COL     4   RATE   -0.619933    
 AG WELL      4   LAYER   1   ROW     7   COL     5   RATE   -0.619933    
 AG WELL      5   LAYER   1   ROW     8   COL     4   RATE   -0.619933    
 AG WELL      6   LAYER   1   ROW     8   COL     5   RATE   -0.619933    
 
 

        GW IRRIGATION     PERIOD    5   STEP   9
 AG WELL      1   ROW     6   COL     4   RATE    0.619933    
 AG WELL      2   ROW     6   COL     5   RATE    0.619933    
 AG WELL      3   ROW     7   COL     4   RATE    0.619933    
 AG WELL      4   ROW     7   COL     5   RATE    0.619933    
 AG WELL      5   ROW     8   COL     4   RATE    0.619933    
 AG WELL      6   ROW     8   COL     5   RATE    0.619933    
 
1
  VOLUMETRIC BUDGET FOR AGRICULTURAL FIELDS AT  END OF TIME STEP    9, STRESS PERIOD   5
  ------------------------------------------------------------------------------

     CUMULATIVE VOLUMES      L**3       RATES FOR THIS TIME STEP      L**3/T
     ------------------                 ------------------------

           IN:                                      IN:
           ---                                      ---
               AG WELLS  =     2937410.0000                 AG WELLS  =           3.7196
      DIVERSION SEGMENTS =           0.0000        DIVERSION SEGMENTS =           0.0000
       IRRIGATION PONDS  =           0.0000         IRRIGATION PONDS  =           0.0000
           GW IRRIGATION =           0.0000             GW IRRIGATION =           0.0000
           SW IRRIGATION =           0.0000             SW IRRIGATION =           0.0000
        SYSTEM LOSSES GW =           0.0000          SYSTEM LOSSES GW =           0.0000
        SYSTEM LOSSES SW =           0.0000          SYSTEM LOSSES SW =           0.0000

                TOTAL IN =     2937410.0000                  TOTAL IN =           3.7196

          OUT:                                     OUT:
          ----                                     ----
               AG WELLS  =           0.0000                 AG WELLS  =           0.0000
      DIVERSION SEGMENTS =           0.0000        DIVERSION SEGMENTS =           0.0000
       IRRIGATION PONDS  =           0.0000         IRRIGATION PONDS  =           0.0000
           GW IRRIGATION =     2937410.0000             GW IRRIGATION =           3.7196
           SW IRRIGATION =           0.0000             SW IRRIGATION =           0.0000
        SYSTEM LOSSES GW =           0.0000          SYSTEM LOSSES GW =           0.0000
        SYSTEM LOSSES SW =           0.0000          SYSTEM LOSSES SW =           0.0000

               TOTAL OUT =     2937410.0000                 TOTAL OUT =           3.7196

                IN - OUT =           0.0000                  IN - OUT =           0.0000

     PERCENT DISCREPANCY =           0.00         PERCENT DISCREPANCY =           0.00



1
  VOLUMETRIC BUDGET FOR ENTIRE MODEL AT END OF TIME STEP    9, STRESS PERIOD   5
  ------------------------------------------------------------------------------

     CUMULATIVE VOLUMES      L**3       RATES FOR THIS TIME STEP      L**3/T
     ------------------                 ------------------------

           IN:                                      IN:
           ---                                      ---
             STORAGE     =     9346079.0000               STORAGE     =           5.6572
       CONSTANT HEAD     =           0.0000         CONSTANT HEAD     =           0.0000
     HEAD DEP BOUNDS     =     2501860.2500       HEAD DEP BOUNDS     =           0.2855
      STREAM LEAKAGE     =   108134112.0000        STREAM LEAKAGE     =          11.6129
        UZF RECHARGE     =       73223.9531          UZF RECHARGE     =           0.0000
               GW ET     =           0.0000                 GW ET     =           0.0000
     SURFACE LEAKAGE     =           0.0000       SURFACE LEAKAGE     =           0.0000
           AG WELLS      =           0.0000             AG WELLS      =           0.0000

                TOTAL IN =   120055272.0000                  TOTAL IN =          17.5556

          OUT:                                     OUT:
          ----                                     ----
             STORAGE     =    23402126.0000               STORAGE     =           1.1592
       CONSTANT HEAD     =           0.0000         CONSTANT HEAD     =           0.0000
     HEAD DEP BOUNDS     =     2561401.0000       HEAD DEP BOUNDS     =           0.2953
      STREAM LEAKAGE     =    90984232.0000        STREAM LEAKAGE     =          12.2609
        UZF RECHARGE     =           0.0000          UZF RECHARGE     =           0.0000
               GW ET     =      175142.7344                 GW ET     =           0.1204
     SURFACE LEAKAGE     =           0.0000       SURFACE LEAKAGE     =           0.0000
           AG WELLS      =     2937410.0000             AG WELLS      =           3.7196

               TOTAL OUT =   120060312.0000                 TOTAL OUT =          17.5554

                IN - OUT =       -5040.0000                  IN - OUT =       1.4496E-04

     PERCENT DISCREPANCY =          -0.00         PERCENT DISCREPANCY =           0.00






         TIME SUMMARY AT END OF TIME STEP    9 IN STRESS PERIOD    5
                    SECONDS     MINUTES      HOURS       DAYS        YEARS
                    -----------------------------------------------------------
   TIME STEP LENGTH  87667.      1461.1      24.352      1.0147     2.77799E-03
 STRESS PERIOD TIME 7.89000E+05  13150.      219.17      9.1319     2.50019E-02
         TOTAL TIME 8.76540E+06 1.46090E+05  2434.8      101.45     0.27776    
1
 
 SOLVING FOR HEAD 
                                                   Max.-Head-Change                         Max.-Flux-Residual
  Residual-Control   Outer-Iter.   Inner-Iter.     Column Row Layer    Maximum-Head-Change  Column Row Layer    Maximum-Flux-Residual          L2-NORM 
          0                 1           2             2   13     1      -0.7797204062E-02       2   13    1        -0.4389850261E+00      0.8757634209E+00
          0                 2           2             4    7     1      -0.1163677004E-01       5    6    1        -0.6347834768E+00      0.1546384670E+01
          0                 3           2             4    7     1       0.7924201625E-03       5    6    1         0.4443145789E-01      0.1082314632E+00
          0                 4           1             4    7     1      -0.3153114304E-04       5    6    1        -0.1816922853E-02      0.4425649203E-02

    ------------------------------------------------
       NWT REQUIRED            4 OUTER ITERATIONS 
       AND A TOTAL OF          7 INNER ITERATIONS.
    ------------------------------------------------

 OUTPUT CONTROL FOR STRESS PERIOD    5   TIME STEP   10
    PRINT BUDGET
    SAVE BUDGET
 UBDSV1 SAVING "         STORAGE" ON UNIT 102 AT TIME STEP 10, STRESS PERIOD 5
 UBDSV2 SAVING "   CONSTANT HEAD" ON UNIT 102 AT TIME STEP 10, STRESS PERIOD 5
 UBDSV1 SAVING "FLOW RIGHT FACE " ON UNIT 102 AT TIME STEP 10, STRESS PERIOD 5
 UBDSV1 SAVING "FLOW FRONT FACE " ON UNIT 102 AT TIME STEP 10, STRESS PERIOD 5

  HEAD DEP BOUNDS   PERIOD    5   STEP    10
 BOUNDARY      1   LAYER   1   ROW    13   COL     1   RATE   -0.295110    
 BOUNDARY      2   LAYER   1   ROW    14   COL     9   RATE    0.285477    



 STREAM LISTING     PERIOD      5   STEP       10

 LAYER ROW COL. STREAM  RCH.  FLOW INTO     FLOW TO   FLOW OUT OF   OVRLND.     DIRECT     STREAM       STREAM     STREAM     STREAM   STREAMBED  STREAMBED
                SEG.NO.  NO.  STRM. RCH.    AQUIFER    STRM. RCH.    RUNOFF     PRECIP       ET          HEAD       DEPTH      WIDTH   CONDCTNC.   GRADIENT

   1    1    1     1     1    2.8000E+01  2.5860E-01   2.7742E+01  0.000E+00  0.000E+00  0.000E+00  1.09427E+03  1.221E+00  1.361E+01  6.126E-02  1.407E+00
   1    2    2     1     2    2.7742E+01  4.0002E-01   2.7341E+01  0.000E+00  0.000E+00  0.000E+00  1.08928E+03  1.217E+00  1.355E+01  9.487E-02  1.406E+00
   1    3    3     1     3    2.7341E+01  3.4070E-01   2.7001E+01  0.000E+00  0.000E+00  0.000E+00  1.08363E+03  1.212E+00  1.348E+01  8.090E-02  1.404E+00
   1    3    4     1     4    2.7001E+01  3.1335E-01   2.6687E+01  0.000E+00  0.000E+00  0.000E+00  1.07861E+03  1.207E+00  1.342E+01  7.448E-02  1.402E+00
   1    4    5     2     1    2.4687E+01  3.2711E-01   2.4360E+01  0.000E+00  0.000E+00  0.000E+00  1.07313E+03  1.194E+00  1.200E+01  7.800E-02  1.398E+00
   1    5    6     2     2    2.4360E+01  2.5111E-01   2.4109E+01  0.000E+00  0.000E+00  0.000E+00  1.06769E+03  1.185E+00  1.200E+01  6.000E-02  1.395E+00
   1    6    6     2     3    2.4109E+01  2.5067E-01   2.3859E+01  0.000E+00  0.000E+00  0.000E+00  1.06297E+03  1.178E+00  1.200E+01  6.000E-02  1.393E+00
   1    7    6     2     4    2.3859E+01  2.5023E-01   2.3608E+01  0.000E+00  0.000E+00  0.000E+00  1.05825E+03  1.170E+00  1.200E+01  6.000E-02  1.390E+00
   1    8    6     2     5    2.3608E+01  2.4978E-01   2.3359E+01  0.000E+00  0.000E+00  0.000E+00  1.05352E+03  1.163E+00  1.200E+01  6.000E-02  1.388E+00
   1    3    5     3     1    2.0000E+00  2.8252E-01   1.7175E+00  0.000E+00  0.000E+00  0.000E+00  1.07555E+03  1.909E+00  9.636E+00  7.227E-02  1.955E+00
   1    3    6     3     2    1.7175E+00  2.4905E-01   1.4684E+00  0.000E+00  0.000E+00  0.000E+00  1.07264E+03  1.727E+00  8.909E+00  6.682E-02  1.864E+00
   1    3    7     3     3    1.4684E+00  1.9718E-01   1.2712E+00  0.000E+00  0.000E+00  0.000E+00  1.06987E+03  1.555E+00  8.218E+00  5.547E-02  1.777E+00
   1    4    8     3     4    1.2712E+00  2.2567E-01   1.0456E+00  0.000E+00  0.000E+00  0.000E+00  1.06682E+03  1.364E+00  7.455E+00  6.709E-02  1.682E+00
   1    5    8     3     5    1.0456E+00  1.5790E-01   8.8768E-01  0.000E+00  0.000E+00  0.000E+00  1.06362E+03  1.164E+00  6.655E+00  4.991E-02  1.582E+00
   1    6    8     3     6    8.8768E-01  5.5980E-02   8.3170E-01  0.000E+00  0.000E+00  0.000E+00  1.06158E+03  1.036E+00  6.145E+00  1.844E-02  1.518E+00
   1    5   10     4     1    1.0000E+01  9.0919E-02   9.9091E+00  0.000E+00  0.000E+00  0.000E+00  1.07836E+03  6.368E-01  1.000E+01  2.500E-02  1.212E+00
   1    5    9     4     2    9.9091E+00  1.8158E-01   9.7275E+00  0.000E+00  0.000E+00  0.000E+00  1.07154E+03  6.315E-01  1.000E+01  5.000E-02  1.211E+00
   1    6    8     4     3    9.7275E+00  1.2689E-01   9.6006E+00  0.000E+00  0.000E+00  0.000E+00  1.06381E+03  6.256E-01  1.000E+01  3.500E-02  1.209E+00
   1    6    8     5     1    1.0432E+01  2.2686E-01   1.0205E+01  0.000E+00  0.000E+00  0.000E+00  1.05868E+03  6.790E-01  1.542E+01  6.166E-02  1.226E+00
   1    7    7     5     2    1.0205E+01  2.7894E-01   9.9265E+00  0.000E+00  0.000E+00  0.000E+00  1.05417E+03  6.732E-01  1.519E+01  7.594E-02  1.224E+00
   1    8    7     5     3    9.9265E+00  1.9221E-01   9.7343E+00  0.000E+00  0.000E+00  0.000E+00  1.04992E+03  6.676E-01  1.497E+01  5.241E-02  1.223E+00
   1    8    6     5     4    9.7343E+00  1.3577E-01   9.5985E+00  0.000E+00  0.000E+00  0.000E+00  1.04691E+03  6.637E-01  1.482E+01  3.706E-02  1.221E+00
   1    9    6     6     1    3.2957E+01  2.6627E-01   3.2691E+01  0.000E+00  0.000E+00  0.000E+00  1.04417E+03  1.438E+00  1.200E+01  6.000E-02  1.479E+00
   1   10    7     6     2    3.2691E+01  2.6585E-01   3.2425E+01  0.000E+00  0.000E+00  0.000E+00  1.03961E+03  1.431E+00  1.200E+01  6.000E-02  1.477E+00
   1   11    7     6     3    3.2425E+01  2.6542E-01   3.2160E+01  0.000E+00  0.000E+00  0.000E+00  1.03506E+03  1.424E+00  1.200E+01  6.000E-02  1.475E+00
   1   12    7     6     4    3.2160E+01  2.6500E-01   3.1895E+01  0.000E+00  0.000E+00  0.000E+00  1.03051E+03  1.417E+00  1.200E+01  6.000E-02  1.472E+00
   1   13    7     6     5    3.1895E+01  3.4296E-03   3.1891E+01  0.000E+00  0.000E+00  0.000E+00  1.02732E+03  1.413E+00  1.200E+01  2.400E-02  4.763E-02
   1   14    9     7     1    1.5000E+02  1.3317E+00   1.4867E+02  0.000E+00  0.000E+00  0.000E+00  1.03987E+03  2.288E+00  5.529E+01  5.593E-01  7.937E-01
   1   13    8     7     2    1.4867E+02  1.8133E+00   1.4686E+02  0.000E+00  0.000E+00  0.000E+00  1.03478E+03  2.279E+00  5.526E+01  6.148E-01  9.832E-01
   1   13    7     7     3    1.4686E+02  1.4022E+00   1.4545E+02  0.000E+00  0.000E+00  0.000E+00  1.02969E+03  2.271E+00  5.522E+01  5.585E-01  8.369E-01
   1   13    6     8     1    1.7734E+02  8.6106E-01   1.7648E+02  0.000E+00  0.000E+00  0.000E+00  1.02487E+03  2.997E+00  4.345E+01  4.428E-01  6.482E-01
   1   13    5     8     2    1.7648E+02  9.6466E-02   1.7639E+02  0.000E+00  0.000E+00  0.000E+00  1.01862E+03  2.994E+00  4.341E+01  4.423E-01  7.269E-02
   1   13    4     8     3    1.7639E+02 -2.9174E+00   1.7930E+02  0.000E+00  0.000E+00  0.000E+00  1.01238E+03  3.003E+00  4.354E+01  4.437E+00 -2.192E-01
   1   13    3     8     4    1.7930E+02 -4.0240E+00   1.8333E+02  0.000E+00  0.000E+00  0.000E+00  1.00615E+03  3.024E+00  4.385E+01  4.469E+00 -3.001E-01
   1   13    2     8     5    1.8333E+02 -2.9734E+00   1.8630E+02  0.000E+00  0.000E+00  0.000E+00  9.99921E+02  3.046E+00  4.417E+01  4.501E+00 -2.202E-01
   1   13    1     8     6    1.8630E+02 -2.2501E+00   1.8855E+02  0.000E+00  0.000E+00  0.000E+00  9.94937E+02  3.062E+00  4.440E+01  2.715E+00 -2.763E-01



 UBDSV3 SAVING "           GW ET" ON UNIT  61 AT TIME STEP 10, STRESS PERIOD 5
 UBDSV3 SAVING "    UZF RECHARGE" ON UNIT  61 AT TIME STEP 10, STRESS PERIOD 5
 UBDSV3 SAVING " SURFACE LEAKAGE" ON UNIT  61 AT TIME STEP 10, STRESS PERIOD 5
 UBDSV3 SAVING "       HORT+DUNN" ON UNIT  61 AT TIME STEP 10, STRESS PERIOD 5
 UBDSV3 SAVING "  STORAGE CHANGE" ON UNIT  61 AT TIME STEP 10, STRESS PERIOD 5


UNSATURATED ZONE PACKAGE VOLUMETRIC BUDGET FOR  TIME STEP    10 STRESS PERIOD    5
  ------------------------------------------------------------------------------



     CUMULATIVE VOLUMES      L**3       RATES FOR THIS TIME STEP      L**3/T
     ------------------                 ------------------------

           IN:                                      IN:
           ---                                      ---
        INFILTRATION =    10766468.5380          INFILTRATION =           4.5671

          OUT:                                     OUT:
          ----                                     ----
              UZF ET =    10607139.9124                UZF ET =           4.5675
        UZF RECHARGE =       73224.0000          UZF RECHARGE =       0.0000E+00

            IN - OUT =       86104.6255              IN - OUT =      -3.9870E-04

          STORAGE:                                 STORAGE:
          --------                                 --------
      STORAGE CHANGE =       86104.6563        STORAGE CHANGE =      -3.9843E-04

 PERCENT DISCREPANCY IS DIFFERENCE BETWEEN IN-OUT MINUS CHANGE IN STORAGE
 DIVIDED BY THE AVERAGE OF IN AND OUT TIMES 100

 PERCENT DISCREPANCY =           0.00     PERCENT DISCREPANCY =           0.00






 

            AG WELLS      PERIOD    5   STEP  10
 AG WELL      1   LAYER   1   ROW     6   COL     4   RATE   -0.619934    
 AG WELL      2   LAYER   1   ROW     6   COL     5   RATE   -0.619934    
 AG WELL      3   LAYER   1   ROW     7   COL     4   RATE   -0.619934    
 AG WELL      4   LAYER   1   ROW     7   COL     5   RATE   -0.619934    
 AG WELL      5   LAYER   1   ROW     8   COL     4   RATE   -0.619934    
 AG WELL      6   LAYER   1   ROW     8   COL     5   RATE   -0.619934    
 
 

        GW IRRIGATION     PERIOD    5   STEP  10
 AG WELL      1   ROW     6   COL     4   RATE    0.619934    
 AG WELL      2   ROW     6   COL     5   RATE    0.619934    
 AG WELL      3   ROW     7   COL     4   RATE    0.619934    
 AG WELL      4   ROW     7   COL     5   RATE    0.619934    
 AG WELL      5   ROW     8   COL     4   RATE    0.619934    
 AG WELL      6   ROW     8   COL     5   RATE    0.619934    
 
1
  VOLUMETRIC BUDGET FOR AGRICULTURAL FIELDS AT  END OF TIME STEP   10, STRESS PERIOD   5
  ------------------------------------------------------------------------------

     CUMULATIVE VOLUMES      L**3       RATES FOR THIS TIME STEP      L**3/T
     ------------------                 ------------------------

           IN:                                      IN:
           ---                                      ---
               AG WELLS  =     3263495.0000                 AG WELLS  =           3.7196
      DIVERSION SEGMENTS =           0.0000        DIVERSION SEGMENTS =           0.0000
       IRRIGATION PONDS  =           0.0000         IRRIGATION PONDS  =           0.0000
           GW IRRIGATION =           0.0000             GW IRRIGATION =           0.0000
           SW IRRIGATION =           0.0000             SW IRRIGATION =           0.0000
        SYSTEM LOSSES GW =           0.0000          SYSTEM LOSSES GW =           0.0000
        SYSTEM LOSSES SW =           0.0000          SYSTEM LOSSES SW =           0.0000

                TOTAL IN =     3263495.0000                  TOTAL IN =           3.7196

          OUT:                                     OUT:
          ----                                     ----
               AG WELLS  =           0.0000                 AG WELLS  =           0.0000
      DIVERSION SEGMENTS =           0.0000        DIVERSION SEGMENTS =           0.0000
       IRRIGATION PONDS  =           0.0000         IRRIGATION PONDS  =           0.0000
           GW IRRIGATION =     3263495.0000             GW IRRIGATION =           3.7196
           SW IRRIGATION =           0.0000             SW IRRIGATION =           0.0000
        SYSTEM LOSSES GW =           0.0000          SYSTEM LOSSES GW =           0.0000
        SYSTEM LOSSES SW =           0.0000          SYSTEM LOSSES SW =           0.0000

               TOTAL OUT =     3263495.0000                 TOTAL OUT =           3.7196

                IN - OUT =           0.0000                  IN - OUT =           0.0000

     PERCENT DISCREPANCY =           0.00         PERCENT DISCREPANCY =           0.00



1
  VOLUMETRIC BUDGET FOR ENTIRE MODEL AT END OF TIME STEP   10, STRESS PERIOD   5
  ------------------------------------------------------------------------------

     CUMULATIVE VOLUMES      L**3       RATES FOR THIS TIME STEP      L**3/T
     ------------------                 ------------------------

           IN:                                      IN:
           ---                                      ---
             STORAGE     =     9829940.0000               STORAGE     =           5.5193
       CONSTANT HEAD     =           0.0000         CONSTANT HEAD     =           0.0000
     HEAD DEP BOUNDS     =     2526887.0000       HEAD DEP BOUNDS     =           0.2855
      STREAM LEAKAGE     =   109152248.0000        STREAM LEAKAGE     =          11.6137
        UZF RECHARGE     =       73223.9531          UZF RECHARGE     =           0.0000
               GW ET     =           0.0000                 GW ET     =           0.0000
     SURFACE LEAKAGE     =           0.0000       SURFACE LEAKAGE     =           0.0000
           AG WELLS      =           0.0000             AG WELLS      =           0.0000

                TOTAL IN =   121582296.0000                  TOTAL IN =          17.4185

          OUT:                                     OUT:
          ----                                     ----
             STORAGE     =    23501478.0000               STORAGE     =           1.1333
       CONSTANT HEAD     =           0.0000         CONSTANT HEAD     =           0.0000
     HEAD DEP BOUNDS     =     2587272.2500       HEAD DEP BOUNDS     =           0.2951
      STREAM LEAKAGE     =    92050688.0000        STREAM LEAKAGE     =          12.1649
        UZF RECHARGE     =           0.0000          UZF RECHARGE     =           0.0000
               GW ET     =      184383.7969                 GW ET     =           0.1054
     SURFACE LEAKAGE     =           0.0000       SURFACE LEAKAGE     =           0.0000
           AG WELLS      =     3263495.0000             AG WELLS      =           3.7196

               TOTAL OUT =   121587320.0000                 TOTAL OUT =          17.4184

                IN - OUT =       -5024.0000                  IN - OUT =       1.4305E-04

     PERCENT DISCREPANCY =          -0.00         PERCENT DISCREPANCY =           0.00






         TIME SUMMARY AT END OF TIME STEP   10 IN STRESS PERIOD    5
                    SECONDS     MINUTES      HOURS       DAYS        YEARS
                    -----------------------------------------------------------
   TIME STEP LENGTH  87667.      1461.1      24.352      1.0147     2.77799E-03
 STRESS PERIOD TIME 8.76667E+05  14611.      243.52      10.147     2.77799E-02
         TOTAL TIME 8.85306E+06 1.47551E+05  2459.2      102.47     0.28054    
1
 
 SOLVING FOR HEAD 
                                                   Max.-Head-Change                         Max.-Flux-Residual
  Residual-Control   Outer-Iter.   Inner-Iter.     Column Row Layer    Maximum-Head-Change  Column Row Layer    Maximum-Flux-Residual          L2-NORM 
          0                 1           2             2   13     1      -0.7211960244E-02       2   13    1        -0.4060443212E+00      0.8289267351E+00
          0                 2           2             4    7     1      -0.1164596322E-01       5    6    1        -0.6358250083E+00      0.1548155900E+01
          0                 3           2             4    7     1       0.7930461898E-03       5    6    1         0.4450475374E-01      0.1083575170E+00
          0                 4           1             4    7     1      -0.3155605343E-04       5    6    1        -0.1819958324E-02      0.4430941270E-02

    ------------------------------------------------
       NWT REQUIRED            4 OUTER ITERATIONS 
       AND A TOTAL OF          7 INNER ITERATIONS.
    ------------------------------------------------

 NO OUTPUT CONTROL FOR STRESS PERIOD    5   TIME STEP   11
 
 SOLVING FOR HEAD 
                                                   Max.-Head-Change                         Max.-Flux-Residual
  Residual-Control   Outer-Iter.   Inner-Iter.     Column Row Layer    Maximum-Head-Change  Column Row Layer    Maximum-Flux-Residual          L2-NORM 
          0                 1           2             2   13     1      -0.6670139449E-02       2   13    1        -0.3755433337E+00      0.7900406555E+00
          0                 2           2             4    7     1      -0.1165532656E-01       5    6    1        -0.6368181428E+00      0.1549914681E+01
          0                 3           2             4    7     1       0.7936838035E-03       5    6    1         0.4457463398E-01      0.1084825928E+00
          0                 4           1             4    7     1      -0.3158142456E-04       5    6    1        -0.1822851438E-02      0.4436207867E-02

    ------------------------------------------------
       NWT REQUIRED            4 OUTER ITERATIONS 
       AND A TOTAL OF          7 INNER ITERATIONS.
    ------------------------------------------------

 NO OUTPUT CONTROL FOR STRESS PERIOD    5   TIME STEP   12
 
 SOLVING FOR HEAD 
                                                   Max.-Head-Change                         Max.-Flux-Residual
  Residual-Control   Outer-Iter.   Inner-Iter.     Column Row Layer    Maximum-Head-Change  Column Row Layer    Maximum-Flux-Residual          L2-NORM 
          0                 1           2             2   13     1      -0.6168627446E-02       2   13    1        -0.3473077104E+00      0.7582858021E+00
          0                 2           2             4    7     1      -0.1166483606E-01       5    6    1        -0.6377627630E+00      0.1551654288E+01
          0                 3           2             4    7     1       0.7943313695E-03       5    6    1         0.4464109436E-01      0.1086059625E+00
          0                 4           1             4    7     1      -0.3160719196E-04       5    6    1        -0.1825602350E-02      0.4441339981E-02

    ------------------------------------------------
       NWT REQUIRED            4 OUTER ITERATIONS 
       AND A TOTAL OF          7 INNER ITERATIONS.
    ------------------------------------------------

 NO OUTPUT CONTROL FOR STRESS PERIOD    5   TIME STEP   13
 
 SOLVING FOR HEAD 
                                                   Max.-Head-Change                         Max.-Flux-Residual
  Residual-Control   Outer-Iter.   Inner-Iter.     Column Row Layer    Maximum-Head-Change  Column Row Layer    Maximum-Flux-Residual          L2-NORM 
          0                 1           2             2   13     1      -0.5704449720E-02       2   13    1        -0.3211708823E+00      0.7328797721E+00
          0                 2           2             4    7     1      -0.1167446922E-01       5    6    1        -0.6386653224E+00      0.1553371081E+01
          0                 3           2             4    7     1       0.7949873566E-03       5    6    1         0.4470458772E-01      0.1087274866E+00
          0                 4           1             4    7     1      -0.3163329438E-04       5    6    1        -0.1828229682E-02      0.4446316878E-02

    ------------------------------------------------
       NWT REQUIRED            4 OUTER ITERATIONS 
       AND A TOTAL OF          7 INNER ITERATIONS.
    ------------------------------------------------

 NO OUTPUT CONTROL FOR STRESS PERIOD    5   TIME STEP   14
 
 SOLVING FOR HEAD 
                                                   Max.-Head-Change                         Max.-Flux-Residual
  Residual-Control   Outer-Iter.   Inner-Iter.     Column Row Layer    Maximum-Head-Change  Column Row Layer    Maximum-Flux-Residual          L2-NORM 
          0                 1           2             2   13     1      -0.5274984889E-02       2   13    1        -0.2969859988E+00      0.7130607210E+00
          0                 2           2             4    7     1      -0.1168417626E-01       5    6    1        -0.6395268226E+00      0.1555057191E+01
          0                 3           2             4    7     1       0.7956483732E-03       5    6    1         0.4476518650E-01      0.1088467340E+00
          0                 4           1             4    7     1      -0.3165959666E-04       5    6    1        -0.1830736685E-02      0.4451331009E-02

    ------------------------------------------------
       NWT REQUIRED            4 OUTER ITERATIONS 
       AND A TOTAL OF          7 INNER ITERATIONS.
    ------------------------------------------------

 NO OUTPUT CONTROL FOR STRESS PERIOD    5   TIME STEP   15
 
 SOLVING FOR HEAD 
                                                   Max.-Head-Change                         Max.-Flux-Residual
  Residual-Control   Outer-Iter.   Inner-Iter.     Column Row Layer    Maximum-Head-Change  Column Row Layer    Maximum-Flux-Residual          L2-NORM 
          0                 1           2             2   13     1      -0.4877716864E-02       2   13    1        -0.2746120740E+00      0.6981299471E+00
          0                 2           2             4    7     1      -0.1169396656E-01       5    6    1        -0.6403515477E+00      0.1556714308E+01
          0                 3           2             4    7     1       0.7963150591E-03       5    6    1         0.4482318721E-01      0.1089637853E+00
          0                 4           1             4    7     1      -0.3168612460E-04       5    6    1        -0.1833135074E-02      0.4456185592E-02

    ------------------------------------------------
       NWT REQUIRED            4 OUTER ITERATIONS 
       AND A TOTAL OF          7 INNER ITERATIONS.
    ------------------------------------------------

 NO OUTPUT CONTROL FOR STRESS PERIOD    5   TIME STEP   16
 
 SOLVING FOR HEAD 
                                                   Max.-Head-Change                         Max.-Flux-Residual
  Residual-Control   Outer-Iter.   Inner-Iter.     Column Row Layer    Maximum-Head-Change  Column Row Layer    Maximum-Flux-Residual          L2-NORM 
          0                 1           2             2   13     1      -0.4510294066E-02       2   13    1        -0.2539171388E+00      0.6874110413E+00
          0                 2           2             4    7     1      -0.1170379376E-01       5    6    1        -0.6411384423E+00      0.1558337573E+01
          0                 3           2             4    7     1       0.7969842579E-03       5    6    1         0.4487842060E-01      0.1090781940E+00
          0                 4           1             4    7     1      -0.3171275269E-04       5    6    1        -0.1835408739E-02      0.4460937814E-02

    ------------------------------------------------
       NWT REQUIRED            4 OUTER ITERATIONS 
       AND A TOTAL OF          7 INNER ITERATIONS.
    ------------------------------------------------

 NO OUTPUT CONTROL FOR STRESS PERIOD    5   TIME STEP   17
 
 SOLVING FOR HEAD 
                                                   Max.-Head-Change                         Max.-Flux-Residual
  Residual-Control   Outer-Iter.   Inner-Iter.     Column Row Layer    Maximum-Head-Change  Column Row Layer    Maximum-Flux-Residual          L2-NORM 
          0                 1           2             2   13     1      -0.4170459320E-02       2   13    1        -0.2347745932E+00      0.6803075060E+00
          0                 2           2             4    7     1      -0.1171369812E-01       5    6    1        -0.6418933144E+00      0.1559928781E+01
          0                 3           2             4    7     1       0.7976587105E-03       5    6    1         0.4493140284E-01      0.1091902258E+00
          0                 4           1             4    7     1      -0.3173958985E-04       5    6    1        -0.1837589408E-02      0.4465551799E-02

    ------------------------------------------------
       NWT REQUIRED            4 OUTER ITERATIONS 
       AND A TOTAL OF          7 INNER ITERATIONS.
    ------------------------------------------------

 NO OUTPUT CONTROL FOR STRESS PERIOD    5   TIME STEP   18
 
 SOLVING FOR HEAD 
                                                   Max.-Head-Change                         Max.-Flux-Residual
  Residual-Control   Outer-Iter.   Inner-Iter.     Column Row Layer    Maximum-Head-Change  Column Row Layer    Maximum-Flux-Residual          L2-NORM 
          0                 1           2             5    6     1       0.4158127784E-02       5    6    1         0.2267406095E+00      0.6762478849E+00
          0                 2           2             4    7     1      -0.1172360658E-01       5    6    1        -0.6426163488E+00      0.1561484409E+01
          0                 3           2             4    7     1       0.7983334416E-03       5    6    1         0.4498214684E-01      0.1092997122E+00
          0                 4           1             4    7     1      -0.3176643853E-04       5    6    1        -0.1839677583E-02      0.4470069029E-02

    ------------------------------------------------
       NWT REQUIRED            4 OUTER ITERATIONS 
       AND A TOTAL OF          7 INNER ITERATIONS.
    ------------------------------------------------

 NO OUTPUT CONTROL FOR STRESS PERIOD    5   TIME STEP   19
 
 SOLVING FOR HEAD 
                                                   Max.-Head-Change                         Max.-Flux-Residual
  Residual-Control   Outer-Iter.   Inner-Iter.     Column Row Layer    Maximum-Head-Change  Column Row Layer    Maximum-Flux-Residual          L2-NORM 
          0                 1           2             5    6     1       0.4285612545E-02       5    6    1         0.2336464834E+00      0.6747503963E+00
          0                 2           2             4    7     1      -0.1173353461E-01       5    6    1        -0.6433078292E+00      0.1563006321E+01
          0                 3           2             4    7     1       0.7990095047E-03       5    6    1         0.4503067386E-01      0.1094068034E+00
          0                 4           1             4    7     1      -0.3179333925E-04       5    6    1        -0.1841674286E-02      0.4474496311E-02

    ------------------------------------------------
       NWT REQUIRED            4 OUTER ITERATIONS 
       AND A TOTAL OF          7 INNER ITERATIONS.
    ------------------------------------------------

 NO OUTPUT CONTROL FOR STRESS PERIOD    5   TIME STEP   20
 
 SOLVING FOR HEAD 
                                                   Max.-Head-Change                         Max.-Flux-Residual
  Residual-Control   Outer-Iter.   Inner-Iter.     Column Row Layer    Maximum-Head-Change  Column Row Layer    Maximum-Flux-Residual          L2-NORM 
          0                 1           2             5    6     1       0.4408322646E-02       5    6    1         0.2402896937E+00      0.6753635553E+00
          0                 2           2             4    7     1      -0.1174344140E-01       5    6    1        -0.6439730432E+00      0.1564491109E+01
          0                 3           2             4    7     1       0.7996841211E-03       5    6    1         0.4507735390E-01      0.1095116339E+00
          0                 4           1             4    7     1      -0.3182018263E-04       5    6    1        -0.1843594670E-02      0.4478803642E-02

    ------------------------------------------------
       NWT REQUIRED            4 OUTER ITERATIONS 
       AND A TOTAL OF          7 INNER ITERATIONS.
    ------------------------------------------------

 NO OUTPUT CONTROL FOR STRESS PERIOD    5   TIME STEP   21
 
 SOLVING FOR HEAD 
                                                   Max.-Head-Change                         Max.-Flux-Residual
  Residual-Control   Outer-Iter.   Inner-Iter.     Column Row Layer    Maximum-Head-Change  Column Row Layer    Maximum-Flux-Residual          L2-NORM 
          0                 1           2             5    6     1       0.4525941162E-02       5    6    1         0.2466521366E+00      0.6777228131E+00
          0                 2           2             4    7     1      -0.1175336909E-01       5    6    1        -0.6446101878E+00      0.1565932733E+01
          0                 3           2             4    7     1       0.8003601612E-03       5    6    1         0.4512206135E-01      0.1096126419E+00
          0                 4           1             4    7     1      -0.3184708311E-04       5    6    1        -0.1845433603E-02      0.4482967878E-02

    ------------------------------------------------
       NWT REQUIRED            4 OUTER ITERATIONS 
       AND A TOTAL OF          7 INNER ITERATIONS.
    ------------------------------------------------

 NO OUTPUT CONTROL FOR STRESS PERIOD    5   TIME STEP   22
 
 SOLVING FOR HEAD 
                                                   Max.-Head-Change                         Max.-Flux-Residual
  Residual-Control   Outer-Iter.   Inner-Iter.     Column Row Layer    Maximum-Head-Change  Column Row Layer    Maximum-Flux-Residual          L2-NORM 
          0                 1           2             5    6     1       0.4639362150E-02       5    6    1         0.2527837708E+00      0.6817443630E+00
          0                 2           2             4    7     1      -0.1176325127E-01       5    6    1        -0.6452241773E+00      0.1567364207E+01
          0                 3           2             4    7     1       0.8010331010E-03       5    6    1         0.4516514137E-01      0.1097131622E+00
          0                 4           1             4    7     1      -0.3187385995E-04       5    6    1        -0.1847205343E-02      0.4487123064E-02

    ------------------------------------------------
       NWT REQUIRED            4 OUTER ITERATIONS 
       AND A TOTAL OF          7 INNER ITERATIONS.
    ------------------------------------------------

 NO OUTPUT CONTROL FOR STRESS PERIOD    5   TIME STEP   23
 
 SOLVING FOR HEAD 
                                                   Max.-Head-Change                         Max.-Flux-Residual
  Residual-Control   Outer-Iter.   Inner-Iter.     Column Row Layer    Maximum-Head-Change  Column Row Layer    Maximum-Flux-Residual          L2-NORM 
          0                 1           2             5    6     1       0.4748236996E-02       5    6    1         0.2586645747E+00      0.6868255492E+00
          0                 2           2             4    7     1      -0.1177310688E-01       5    6    1        -0.6458130911E+00      0.1568749952E+01
          0                 3           2             4    7     1       0.8017075209E-03       5    6    1         0.4520645874E-01      0.1098054748E+00
          0                 4           1             4    8     1      -0.3208313384E-04       5    6    1        -0.1848904275E-02      0.4496930334E-02

    ------------------------------------------------
       NWT REQUIRED            4 OUTER ITERATIONS 
       AND A TOTAL OF          7 INNER ITERATIONS.
    ------------------------------------------------

 NO OUTPUT CONTROL FOR STRESS PERIOD    5   TIME STEP   24
 
 SOLVING FOR HEAD 
                                                   Max.-Head-Change                         Max.-Flux-Residual
  Residual-Control   Outer-Iter.   Inner-Iter.     Column Row Layer    Maximum-Head-Change  Column Row Layer    Maximum-Flux-Residual          L2-NORM 
          0                 1           2             5    6     1       0.4853113289E-02       5    6    1         0.2643262603E+00      0.6927682470E+00
          0                 2           2             5    7     1      -0.1178293916E-01       5    6    1        -0.6463800931E+00      0.1570102225E+01
          0                 3           2             5    7     1       0.8023724194E-03       5    6    1         0.4524623726E-01      0.1098240039E+00
          0                 4           1             5    7     1      -0.3192719788E-04       5    6    1        -0.1850539793E-02      0.4491695663E-02

    ------------------------------------------------
       NWT REQUIRED            4 OUTER ITERATIONS 
       AND A TOTAL OF          7 INNER ITERATIONS.
    ------------------------------------------------

 NO OUTPUT CONTROL FOR STRESS PERIOD    5   TIME STEP   25
 
 SOLVING FOR HEAD 
                                                   Max.-Head-Change                         Max.-Flux-Residual
  Residual-Control   Outer-Iter.   Inner-Iter.     Column Row Layer    Maximum-Head-Change  Column Row Layer    Maximum-Flux-Residual          L2-NORM 
          0                 1           2             5    6     1       0.4954224088E-02       5    6    1         0.2697806205E+00      0.6993309500E+00
          0                 2           2             5    7     1      -0.1179306701E-01       5    6    1        -0.6469263029E+00      0.1571420136E+01
          0                 3           2             5    7     1       0.8030606473E-03       5    6    1         0.4528455381E-01      0.1098423703E+00
          0                 4           1             5    7     1      -0.3195458282E-04       5    6    1        -0.1852114835E-02      0.4492476772E-02

    ------------------------------------------------
       NWT REQUIRED            4 OUTER ITERATIONS 
       AND A TOTAL OF          7 INNER ITERATIONS.
    ------------------------------------------------

 NO OUTPUT CONTROL FOR STRESS PERIOD    5   TIME STEP   26
 
 SOLVING FOR HEAD 
                                                   Max.-Head-Change                         Max.-Flux-Residual
  Residual-Control   Outer-Iter.   Inner-Iter.     Column Row Layer    Maximum-Head-Change  Column Row Layer    Maximum-Flux-Residual          L2-NORM 
          0                 1           2             5    6     1       0.5051477498E-02       5    6    1         0.2750231354E+00      0.7064290389E+00
          0                 2           2             5    7     1      -0.1180296095E-01       5    6    1        -0.6474513879E+00      0.1572696899E+01
          0                 3           2             5    7     1       0.8037371960E-03       5    6    1         0.4532138679E-01      0.1100877513E+00
          0                 4           1             5    7     1      -0.3198150334E-04       5    6    1        -0.1853628786E-02      0.4502542333E-02

    ------------------------------------------------
       NWT REQUIRED            4 OUTER ITERATIONS 
       AND A TOTAL OF          7 INNER ITERATIONS.
    ------------------------------------------------

 NO OUTPUT CONTROL FOR STRESS PERIOD    5   TIME STEP   27
 
 SOLVING FOR HEAD 
                                                   Max.-Head-Change                         Max.-Flux-Residual
  Residual-Control   Outer-Iter.   Inner-Iter.     Column Row Layer    Maximum-Head-Change  Column Row Layer    Maximum-Flux-Residual          L2-NORM 
          0                 1           2             5    6     1       0.5145688000E-02       5    6    1         0.2800988569E+00      0.7139498539E+00
          0                 2           2             5    7     1      -0.1181264942E-01       5    6    1        -0.6479597339E+00      0.1573949092E+01
          0                 3           2             5    7     1       0.8043969448E-03       5    6    1         0.4535704286E-01      0.1101755764E+00
          0                 4           1             5    7     1      -0.3200775542E-04       5    6    1        -0.1855094099E-02      0.4506142102E-02

    ------------------------------------------------
       NWT REQUIRED            4 OUTER ITERATIONS 
       AND A TOTAL OF          7 INNER ITERATIONS.
    ------------------------------------------------

 NO OUTPUT CONTROL FOR STRESS PERIOD    5   TIME STEP   28
 
 SOLVING FOR HEAD 
                                                   Max.-Head-Change                         Max.-Flux-Residual
  Residual-Control   Outer-Iter.   Inner-Iter.     Column Row Layer    Maximum-Head-Change  Column Row Layer    Maximum-Flux-Residual          L2-NORM 
          0                 1           2             5    6     1       0.5242944710E-02       5    6    1         0.2849836025E+00      0.8409046198E+00
          0                 2           2             5    7     1      -0.1182276650E-01       5    6    1        -0.6484489979E+00      0.1575736970E+01
          0                 3           2             5    7     1       0.8050858638E-03       5    6    1         0.4539121609E-01      0.1102984761E+00
          0                 4           1             5    7     1      -0.3203516892E-04       5    6    1        -0.1856484571E-02      0.4511042859E-02

    ------------------------------------------------
       NWT REQUIRED            4 OUTER ITERATIONS 
       AND A TOTAL OF          7 INNER ITERATIONS.
    ------------------------------------------------

 NO OUTPUT CONTROL FOR STRESS PERIOD    5   TIME STEP   29
 
 SOLVING FOR HEAD 
                                                   Max.-Head-Change                         Max.-Flux-Residual
  Residual-Control   Outer-Iter.   Inner-Iter.     Column Row Layer    Maximum-Head-Change  Column Row Layer    Maximum-Flux-Residual          L2-NORM 
          0                 1           2             4   13     1       0.2591911515E-01       4   13    1         0.1501267186E+01      0.2742572726E+01
          0                 2           2             5    7     1      -0.1183436097E-01       5    6    1        -0.6489540504E+00      0.1599811420E+01
          0                 3           2             5    7     1       0.8058753606E-03       5    6    1         0.4542371195E-01      0.1118512261E+00
          0                 4           1             5    7     1      -0.3206658586E-04       5    6    1        -0.1857536748E-02      0.4566570275E-02

    ------------------------------------------------
       NWT REQUIRED            4 OUTER ITERATIONS 
       AND A TOTAL OF          7 INNER ITERATIONS.
    ------------------------------------------------

 NO OUTPUT CONTROL FOR STRESS PERIOD    5   TIME STEP   30



 STREAM LISTING     PERIOD      5   STEP       30

 LAYER ROW COL. STREAM  RCH.  FLOW INTO     FLOW TO   FLOW OUT OF   OVRLND.     DIRECT     STREAM       STREAM     STREAM     STREAM   STREAMBED  STREAMBED
                SEG.NO.  NO.  STRM. RCH.    AQUIFER    STRM. RCH.    RUNOFF     PRECIP       ET          HEAD       DEPTH      WIDTH   CONDCTNC.   GRADIENT

   1    1    1     1     1    9.9000E+01  4.7281E-01   9.8528E+01  0.000E+00  0.000E+00  0.000E+00  1.09484E+03  1.796E+00  2.191E+01  9.859E-02  1.599E+00
   1    2    2     1     2    9.8528E+01  7.3365E-01   9.7794E+01  0.000E+00  0.000E+00  0.000E+00  1.08985E+03  1.793E+00  2.187E+01  1.531E-01  1.598E+00
   1    3    3     1     3    9.7794E+01  6.2707E-01   9.7167E+01  0.000E+00  0.000E+00  0.000E+00  1.08421E+03  1.791E+00  2.181E+01  1.309E-01  1.597E+00
   1    3    4     1     4    9.7167E+01  5.7859E-01   9.6588E+01  0.000E+00  0.000E+00  0.000E+00  1.07920E+03  1.789E+00  2.177E+01  1.208E-01  1.596E+00
   1    4    5     2     1    9.4588E+01  4.4299E-01   9.4145E+01  0.000E+00  0.000E+00  0.000E+00  1.07461E+03  2.679E+00  1.200E+01  7.800E-02  1.893E+00
   1    5    6     2     2    9.4145E+01  3.4036E-01   9.3805E+01  0.000E+00  0.000E+00  0.000E+00  1.06918E+03  2.673E+00  1.200E+01  6.000E-02  1.891E+00
   1    6    6     2     3    9.3805E+01  3.4001E-01   9.3465E+01  0.000E+00  0.000E+00  0.000E+00  1.06446E+03  2.667E+00  1.200E+01  6.000E-02  1.889E+00
   1    7    6     2     4    9.3465E+01  3.3967E-01   9.3125E+01  0.000E+00  0.000E+00  0.000E+00  1.05974E+03  2.661E+00  1.200E+01  6.000E-02  1.887E+00
   1    8    6     2     5    9.3125E+01  3.3932E-01   9.2786E+01  0.000E+00  0.000E+00  0.000E+00  1.05501E+03  2.655E+00  1.200E+01  6.000E-02  1.885E+00
   1    3    5     3     1    2.0000E+00  2.8252E-01   1.7175E+00  0.000E+00  0.000E+00  0.000E+00  1.07555E+03  1.909E+00  9.636E+00  7.227E-02  1.955E+00
   1    3    6     3     2    1.7175E+00  2.4905E-01   1.4684E+00  0.000E+00  0.000E+00  0.000E+00  1.07264E+03  1.727E+00  8.909E+00  6.682E-02  1.864E+00
   1    3    7     3     3    1.4684E+00  1.9718E-01   1.2712E+00  0.000E+00  0.000E+00  0.000E+00  1.06987E+03  1.555E+00  8.218E+00  5.547E-02  1.777E+00
   1    4    8     3     4    1.2712E+00  2.2567E-01   1.0456E+00  0.000E+00  0.000E+00  0.000E+00  1.06682E+03  1.364E+00  7.455E+00  6.709E-02  1.682E+00
   1    5    8     3     5    1.0456E+00  1.5790E-01   8.8768E-01  0.000E+00  0.000E+00  0.000E+00  1.06362E+03  1.164E+00  6.655E+00  4.991E-02  1.582E+00
   1    6    8     3     6    8.8768E-01  5.5980E-02   8.3170E-01  0.000E+00  0.000E+00  0.000E+00  1.06158E+03  1.036E+00  6.145E+00  1.844E-02  1.518E+00
   1    5   10     4     1    1.0000E+01  9.0919E-02   9.9091E+00  0.000E+00  0.000E+00  0.000E+00  1.07836E+03  6.368E-01  1.000E+01  2.500E-02  1.212E+00
   1    5    9     4     2    9.9091E+00  1.8158E-01   9.7275E+00  0.000E+00  0.000E+00  0.000E+00  1.07154E+03  6.315E-01  1.000E+01  5.000E-02  1.211E+00
   1    6    8     4     3    9.7275E+00  1.2689E-01   9.6006E+00  0.000E+00  0.000E+00  0.000E+00  1.06381E+03  6.256E-01  1.000E+01  3.500E-02  1.209E+00
   1    6    8     5     1    1.0432E+01  2.2686E-01   1.0205E+01  0.000E+00  0.000E+00  0.000E+00  1.05868E+03  6.790E-01  1.542E+01  6.166E-02  1.226E+00
   1    7    7     5     2    1.0205E+01  2.7894E-01   9.9265E+00  0.000E+00  0.000E+00  0.000E+00  1.05417E+03  6.732E-01  1.519E+01  7.594E-02  1.224E+00
   1    8    7     5     3    9.9265E+00  1.9221E-01   9.7343E+00  0.000E+00  0.000E+00  0.000E+00  1.04992E+03  6.676E-01  1.497E+01  5.241E-02  1.223E+00
   1    8    6     5     4    9.7343E+00  1.3577E-01   9.5985E+00  0.000E+00  0.000E+00  0.000E+00  1.04691E+03  6.637E-01  1.482E+01  3.706E-02  1.221E+00
   1    9    6     6     1    1.0238E+02  3.5054E-01   1.0203E+02  0.000E+00  0.000E+00  0.000E+00  1.04557E+03  2.842E+00  1.200E+01  6.000E-02  1.947E+00
   1   10    7     6     2    1.0203E+02  3.5018E-01   1.0168E+02  0.000E+00  0.000E+00  0.000E+00  1.04102E+03  2.836E+00  1.200E+01  6.000E-02  1.945E+00
   1   11    7     6     3    1.0168E+02  3.4983E-01   1.0133E+02  0.000E+00  0.000E+00  0.000E+00  1.03647E+03  2.831E+00  1.200E+01  6.000E-02  1.944E+00
   1   12    7     6     4    1.0133E+02  3.4948E-01   1.0098E+02  0.000E+00  0.000E+00  0.000E+00  1.03192E+03  2.825E+00  1.200E+01  6.000E-02  1.942E+00
   1   13    7     6     5    1.0098E+02  3.7134E-02   1.0095E+02  0.000E+00  0.000E+00  0.000E+00  1.02873E+03  2.821E+00  1.200E+01  2.400E-02  5.158E-01
   1   14    9     7     1    1.5000E+02  1.3318E+00   1.4867E+02  0.000E+00  0.000E+00  0.000E+00  1.03987E+03  2.288E+00  5.529E+01  5.593E-01  7.937E-01
   1   13    8     7     2    1.4867E+02  1.8109E+00   1.4686E+02  0.000E+00  0.000E+00  0.000E+00  1.03478E+03  2.279E+00  5.526E+01  6.148E-01  9.819E-01
   1   13    7     7     3    1.4686E+02  1.4000E+00   1.4546E+02  0.000E+00  0.000E+00  0.000E+00  1.02969E+03  2.271E+00  5.522E+01  5.585E-01  8.356E-01
   1   13    6     8     1    2.4640E+02  1.1761E+00   2.4523E+02  0.000E+00  0.000E+00  0.000E+00  1.02527E+03  3.390E+00  4.916E+01  5.009E-01  7.826E-01
   1   13    5     8     2    2.4523E+02  3.1456E-01   2.4491E+02  0.000E+00  0.000E+00  0.000E+00  1.01901E+03  3.386E+00  4.910E+01  5.003E-01  2.096E-01
   1   13    4     8     3    2.4491E+02 -1.2778E+00   2.4619E+02  0.000E+00  0.000E+00  0.000E+00  1.01276E+03  3.389E+00  4.914E+01  5.007E+00 -8.506E-02
   1   13    3     8     4    2.4619E+02 -2.5237E+00   2.4872E+02  0.000E+00  0.000E+00  0.000E+00  1.00652E+03  3.399E+00  4.928E+01  5.022E+00 -1.675E-01
   1   13    2     8     5    2.4872E+02 -1.3007E+00   2.5002E+02  0.000E+00  0.000E+00  0.000E+00  1.00028E+03  3.408E+00  4.942E+01  5.036E+00 -8.609E-02
   1   13    1     8     6    2.5002E+02 -1.2936E+00   2.5131E+02  0.000E+00  0.000E+00  0.000E+00  9.95290E+02  3.415E+00  4.952E+01  3.028E+00 -1.424E-01





UNSATURATED ZONE PACKAGE VOLUMETRIC BUDGET FOR  TIME STEP    30 STRESS PERIOD    5
  ------------------------------------------------------------------------------



     CUMULATIVE VOLUMES      L**3       RATES FOR THIS TIME STEP      L**3/T
     ------------------                 ------------------------

           IN:                                      IN:
           ---                                      ---
        INFILTRATION =    18774223.0845          INFILTRATION =           4.5672

          OUT:                                     OUT:
          ----                                     ----
              UZF ET =    18615489.5917                UZF ET =           4.5675
        UZF RECHARGE =       73224.0000          UZF RECHARGE =       0.0000E+00

            IN - OUT =       85509.4927              IN - OUT =      -2.9153E-04

          STORAGE:                                 STORAGE:
          --------                                 --------
      STORAGE CHANGE =       85509.4632        STORAGE CHANGE =      -2.9150E-04

 PERCENT DISCREPANCY IS DIFFERENCE BETWEEN IN-OUT MINUS CHANGE IN STORAGE
 DIVIDED BY THE AVERAGE OF IN AND OUT TIMES 100

 PERCENT DISCREPANCY =           0.00     PERCENT DISCREPANCY =           0.00






1
  VOLUMETRIC BUDGET FOR AGRICULTURAL FIELDS AT  END OF TIME STEP   30, STRESS PERIOD   5
  ------------------------------------------------------------------------------

     CUMULATIVE VOLUMES      L**3       RATES FOR THIS TIME STEP      L**3/T
     ------------------                 ------------------------

           IN:                                      IN:
           ---                                      ---
               AG WELLS  =     9785298.0000                 AG WELLS  =           3.7197
      DIVERSION SEGMENTS =           0.0000        DIVERSION SEGMENTS =           0.0000
       IRRIGATION PONDS  =           0.0000         IRRIGATION PONDS  =           0.0000
           GW IRRIGATION =           0.0000             GW IRRIGATION =           0.0000
           SW IRRIGATION =           0.0000             SW IRRIGATION =           0.0000
        SYSTEM LOSSES GW =           0.0000          SYSTEM LOSSES GW =           0.0000
        SYSTEM LOSSES SW =           0.0000          SYSTEM LOSSES SW =           0.0000

                TOTAL IN =     9785298.0000                  TOTAL IN =           3.7197

          OUT:                                     OUT:
          ----                                     ----
               AG WELLS  =           0.0000                 AG WELLS  =           0.0000
      DIVERSION SEGMENTS =           0.0000        DIVERSION SEGMENTS =           0.0000
       IRRIGATION PONDS  =           0.0000         IRRIGATION PONDS  =           0.0000
           GW IRRIGATION =     9785298.0000             GW IRRIGATION =           3.7197
           SW IRRIGATION =           0.0000             SW IRRIGATION =           0.0000
        SYSTEM LOSSES GW =           0.0000          SYSTEM LOSSES GW =           0.0000
        SYSTEM LOSSES SW =           0.0000          SYSTEM LOSSES SW =           0.0000

               TOTAL OUT =     9785298.0000                 TOTAL OUT =           3.7197

                IN - OUT =           0.0000                  IN - OUT =           0.0000

     PERCENT DISCREPANCY =           0.00         PERCENT DISCREPANCY =           0.00



1
  VOLUMETRIC BUDGET FOR ENTIRE MODEL AT END OF TIME STEP   30, STRESS PERIOD   5
  ------------------------------------------------------------------------------

     CUMULATIVE VOLUMES      L**3       RATES FOR THIS TIME STEP      L**3/T
     ------------------                 ------------------------

           IN:                                      IN:
           ---                                      ---
             STORAGE     =    17888382.0000               STORAGE     =           3.4382
       CONSTANT HEAD     =           0.0000         CONSTANT HEAD     =           0.0000
     HEAD DEP BOUNDS     =     3027432.2500       HEAD DEP BOUNDS     =           0.2855
      STREAM LEAKAGE     =   129797992.0000        STREAM LEAKAGE     =          14.0865
        UZF RECHARGE     =       73223.9531          UZF RECHARGE     =           0.0000
               GW ET     =           0.0000                 GW ET     =           0.0000
     SURFACE LEAKAGE     =           0.0000       SURFACE LEAKAGE     =           0.0000
           AG WELLS      =           0.0000             AG WELLS      =           0.0000

                TOTAL IN =   150787024.0000                  TOTAL IN =          17.8101

          OUT:                                     OUT:
          ----                                     ----
             STORAGE     =    25817448.0000               STORAGE     =           7.3455
       CONSTANT HEAD     =           0.0000         CONSTANT HEAD     =           0.0000
     HEAD DEP BOUNDS     =     3102142.7500       HEAD DEP BOUNDS     =           0.2933
      STREAM LEAKAGE     =   111847928.0000        STREAM LEAKAGE     =           6.3958
        UZF RECHARGE     =           0.0000          UZF RECHARGE     =           0.0000
               GW ET     =      238986.3281                 GW ET     =       5.5743E-02
     SURFACE LEAKAGE     =           0.0000       SURFACE LEAKAGE     =           0.0000
           AG WELLS      =     9785298.0000             AG WELLS      =           3.7197

               TOTAL OUT =   150791808.0000                 TOTAL OUT =          17.8100

                IN - OUT =       -4784.0000                  IN - OUT =       1.6975E-04

     PERCENT DISCREPANCY =          -0.00         PERCENT DISCREPANCY =           0.00






         TIME SUMMARY AT END OF TIME STEP   30 IN STRESS PERIOD    5
                    SECONDS     MINUTES      HOURS       DAYS        YEARS
                    -----------------------------------------------------------
   TIME STEP LENGTH  87667.      1461.1      24.352      1.0147     2.77799E-03
 STRESS PERIOD TIME 2.63000E+06  43833.      730.56      30.440     8.33397E-02
         TOTAL TIME 1.06064E+07 1.76773E+05  2946.2      122.76     0.33610    
1
1
                            STRESS PERIOD NO.    6, LENGTH =   2630000.    
                            -----------------------------------------------

                              NUMBER OF TIME STEPS =    30

                               MULTIPLIER FOR DELT =     1.000

                            INITIAL TIME STEP SIZE =   87666.66    

 REUSING NON-PARAMETER GHB CELLS FROM LAST STRESS PERIOD

      2 GHB CELLS

 REUSING STREAM SEGMENT DATA FROM LAST STRESS PERIOD



            AREAL INFILTRATION RATE
 READING ON UNIT   19 WITH FORMAT: (FREE)              

            1           2           3           4           5           6           7           8           9          10
 ........................................................................................................................
   1   1.0000E-10  2.0000E-10   0.000       0.000       0.000       0.000       0.000       0.000       0.000       0.000    
   2   2.0000E-10  1.0000E-10  2.0000E-10   0.000       0.000      8.0000E-10  8.0000E-10  5.0000E-10   0.000       0.000    
   3    0.000      5.0000E-10  1.0000E-10  1.0000E-10  8.0000E-10  8.0000E-10  5.0000E-10  5.0000E-10   0.000       0.000    
   4   8.0000E-10  5.0000E-10  1.0000E-10  1.0000E-10  1.0000E-10  1.0000E-10  1.0000E-10  1.0000E-10  2.0000E-10   0.000    
   5   8.0000E-10  5.0000E-10  1.0000E-10  1.0000E-10  1.0000E-10  1.0000E-10  1.0000E-10  1.0000E-10  1.0000E-10  1.0000E-10
   6   8.0000E-10  5.0000E-10  5.0000E-10  2.0000E-10  2.0000E-10  1.0000E-10  1.0000E-10  1.0000E-10  1.0000E-10  5.0000E-10
   7   8.0000E-10  5.0000E-10  5.0000E-10  2.0000E-10  2.0000E-10  1.0000E-10  1.0000E-10  2.0000E-10  2.0000E-10   0.000    
   8    0.000      5.0000E-10  5.0000E-10  2.0000E-10  2.0000E-10  1.0000E-10  1.0000E-10  2.0000E-10  5.0000E-10   0.000    
   9    0.000      5.0000E-10  5.0000E-10  2.0000E-10  2.0000E-10  1.0000E-10  1.0000E-10  2.0000E-10  5.0000E-10   0.000    
  10    0.000      5.0000E-10  5.0000E-10  2.0000E-10  2.0000E-10  1.0000E-10  1.0000E-10  2.0000E-10  5.0000E-10  8.0000E-10
  11    0.000      1.0000E-10  1.0000E-10  1.0000E-10  1.0000E-10  1.0000E-10  1.0000E-10  2.0000E-10  5.0000E-10   0.000    
  12   1.0000E-10  1.0000E-10  1.0000E-10  1.0000E-10  1.0000E-10  1.0000E-10  1.0000E-10  1.0000E-10  2.0000E-10   0.000    
  13   1.0000E-10  1.0000E-10  2.0000E-10  2.0000E-10  2.0000E-10  2.0000E-10  2.0000E-10  1.0000E-10  1.0000E-10   0.000    
  14    0.000      2.0000E-10  5.0000E-10  5.0000E-10  5.0000E-10  5.0000E-10  5.0000E-10  2.0000E-10  1.0000E-10   0.000    
  15    0.000       0.000      8.0000E-10  8.0000E-10  8.0000E-10  8.0000E-10   0.000       0.000       0.000       0.000    

                  ET RATE =  5.000000E-08

 USING ET EXTINCTION DEPTH FROM PREVIOUS STRESS PERIOD. CURRENT PERIOD IS:       6

 USING EXTINCTION WATER CONTENT FROM PREVIOUS STRESS PERIOD. CURRENT PERIOD IS:       6

 USING AIR ENTRY PRESSURE FROM PREVIOUS STRESS PERIOD. CURRENT PERIOD IS:       6

 USING ROOT PRESSURE HEAD FROM PREVIOUS STRESS PERIOD. CURRENT PERIOD IS:       6

 USING ROOT ACTIVITY FROM PREVIOUS STRESS PERIOD. CURRENT PERIOD IS:       6

 PROCESSING AG STRESS PERIOD DATA

 READING AG STRESS PERIOD DATA

 READING IRRIGATION WELL

 NO IRRPOND OR REUSING IRRPOND DATA FROM LAST STRESS PERIOD

 END PROCESSING AG STRESS PERIOD DATA OPTIONS
 
 SOLVING FOR HEAD 
                                                   Max.-Head-Change                         Max.-Flux-Residual
  Residual-Control   Outer-Iter.   Inner-Iter.     Column Row Layer    Maximum-Head-Change  Column Row Layer    Maximum-Flux-Residual          L2-NORM 
          0                 1           2             2   13     1       0.2250399353E-01       4   13    1         0.1302942231E+01      0.3463241093E+01
          0                 2           2             4   13     1      -0.2084571347E-02       4   13    1        -0.1289059666E+00      0.3415658813E+00
          0                 3           2             4   13     1       0.1398121236E-03       4   13    1         0.8889247749E-02      0.2347348974E-01
          0                 4           1             4    7     1       0.5521026737E-05       4   13    1        -0.3537620596E-03      0.9331233815E-03

    ------------------------------------------------
       NWT REQUIRED            4 OUTER ITERATIONS 
       AND A TOTAL OF          7 INNER ITERATIONS.
    ------------------------------------------------

 NO OUTPUT CONTROL FOR STRESS PERIOD    6   TIME STEP    1
 
 SOLVING FOR HEAD 
                                                   Max.-Head-Change                         Max.-Flux-Residual
  Residual-Control   Outer-Iter.   Inner-Iter.     Column Row Layer    Maximum-Head-Change  Column Row Layer    Maximum-Flux-Residual          L2-NORM 
          0                 1           2             2   13     1       0.2063682326E-01       2   13    1         0.1173044051E+01      0.2286908763E+01
          0                 2           2             4    7     1      -0.2349942481E-01       5    6    1        -0.1276862777E+01      0.3119485601E+01
          0                 3           2             4    7     1       0.1600220722E-02       5    6    1         0.8937030969E-01      0.2183093396E+00
          0                 4           1             4    7     1      -0.6367429428E-04       5    6    1        -0.3654284945E-02      0.8925597164E-02

    ------------------------------------------------
       NWT REQUIRED            4 OUTER ITERATIONS 
       AND A TOTAL OF          7 INNER ITERATIONS.
    ------------------------------------------------

 NO OUTPUT CONTROL FOR STRESS PERIOD    6   TIME STEP    2
 
 SOLVING FOR HEAD 
                                                   Max.-Head-Change                         Max.-Flux-Residual
  Residual-Control   Outer-Iter.   Inner-Iter.     Column Row Layer    Maximum-Head-Change  Column Row Layer    Maximum-Flux-Residual          L2-NORM 
          0                 1           2             2   13     1       0.1891851821E-01       2   13    1         0.1075525899E+01      0.2117201141E+01
          0                 2           2             4    7     1      -0.2351547172E-01       5    6    1        -0.1279075827E+01      0.3122301217E+01
          0                 3           2             4    7     1       0.1601313481E-02       5    6    1         0.8952599767E-01      0.2185147967E+00
          0                 4           1             4    7     1      -0.6371777590E-04       5    6    1        -0.3660727706E-02      0.8934436002E-02

    ------------------------------------------------
       NWT REQUIRED            4 OUTER ITERATIONS 
       AND A TOTAL OF          7 INNER ITERATIONS.
    ------------------------------------------------

 NO OUTPUT CONTROL FOR STRESS PERIOD    6   TIME STEP    3
 
 SOLVING FOR HEAD 
                                                   Max.-Head-Change                         Max.-Flux-Residual
  Residual-Control   Outer-Iter.   Inner-Iter.     Column Row Layer    Maximum-Head-Change  Column Row Layer    Maximum-Flux-Residual          L2-NORM 
          0                 1           2             2   13     1       0.1733827504E-01       2   13    1         0.9858051750E+00      0.1977180700E+01
          0                 2           2             4    7     1      -0.2353187735E-01       5    6    1        -0.1281181824E+01      0.3125250934E+01
          0                 3           2             4    7     1       0.1602430666E-02       5    6    1         0.8967414517E-01      0.2187281439E+00
          0                 4           1             4    7     1      -0.6376222943E-04       5    6    1        -0.3666857530E-02      0.8943578236E-02

    ------------------------------------------------
       NWT REQUIRED            4 OUTER ITERATIONS 
       AND A TOTAL OF          7 INNER ITERATIONS.
    ------------------------------------------------

 NO OUTPUT CONTROL FOR STRESS PERIOD    6   TIME STEP    4
 
 SOLVING FOR HEAD 
                                                   Max.-Head-Change                         Max.-Flux-Residual
  Residual-Control   Outer-Iter.   Inner-Iter.     Column Row Layer    Maximum-Head-Change  Column Row Layer    Maximum-Flux-Residual          L2-NORM 
          0                 1           2             2   13     1       0.1588610949E-01       2   13    1         0.9033246562E+00      0.1863022471E+01
          0                 2           2             4    7     1      -0.2354859593E-01       5    6    1        -0.1283184335E+01      0.3128280255E+01
          0                 3           2             4    7     1       0.1603569159E-02       5    6    1         0.8981500452E-01      0.2189459044E+00
          0                 4           1             4    7     1      -0.6380753122E-04       5    6    1        -0.3672684961E-02      0.8952763071E-02

    ------------------------------------------------
       NWT REQUIRED            4 OUTER ITERATIONS 
       AND A TOTAL OF          7 INNER ITERATIONS.
    ------------------------------------------------

 NO OUTPUT CONTROL FOR STRESS PERIOD    6   TIME STEP    5
 
 SOLVING FOR HEAD 
                                                   Max.-Head-Change                         Max.-Flux-Residual
  Residual-Control   Outer-Iter.   Inner-Iter.     Column Row Layer    Maximum-Head-Change  Column Row Layer    Maximum-Flux-Residual          L2-NORM 
          0                 1           2             2   13     1       0.1455240712E-01       2   13    1         0.8275463274E+00      0.1771247616E+01
          0                 2           2             4    7     1      -0.2356560864E-01       5    6    1        -0.1285091563E+01      0.3131349102E+01
          0                 3           2             4    7     1       0.1604727678E-02       5    6    1         0.8994915268E-01      0.2191655561E+00
          0                 4           1             4    7     1      -0.6385362969E-04       5    6    1        -0.3678233935E-02      0.8962009017E-02

    ------------------------------------------------
       NWT REQUIRED            4 OUTER ITERATIONS 
       AND A TOTAL OF          7 INNER ITERATIONS.
    ------------------------------------------------

 NO OUTPUT CONTROL FOR STRESS PERIOD    6   TIME STEP    6
 
 SOLVING FOR HEAD 
                                                   Max.-Head-Change                         Max.-Flux-Residual
  Residual-Control   Outer-Iter.   Inner-Iter.     Column Row Layer    Maximum-Head-Change  Column Row Layer    Maximum-Flux-Residual          L2-NORM 
          0                 1           2             2   13     1       0.1332836094E-01       2   13    1         0.7579766668E+00      0.1698698901E+01
          0                 2           2             4    7     1      -0.2358285214E-01       5    6    1        -0.1286909801E+01      0.3134430355E+01
          0                 3           2             4    7     1       0.1605901913E-02       5    6    1         0.9007703307E-01      0.2193852560E+00
          0                 4           1             4    7     1      -0.6390035354E-04       5    6    1        -0.3683522785E-02      0.8971277580E-02

    ------------------------------------------------
       NWT REQUIRED            4 OUTER ITERATIONS 
       AND A TOTAL OF          7 INNER ITERATIONS.
    ------------------------------------------------

 NO OUTPUT CONTROL FOR STRESS PERIOD    6   TIME STEP    7
 
 SOLVING FOR HEAD 
                                                   Max.-Head-Change                         Max.-Flux-Residual
  Residual-Control   Outer-Iter.   Inner-Iter.     Column Row Layer    Maximum-Head-Change  Column Row Layer    Maximum-Flux-Residual          L2-NORM 
          0                 1           2             2   13     1       0.1220542257E-01       2   13    1         0.6941355440E+00      0.1642488895E+01
          0                 2           2             4    7     1      -0.2360028709E-01       5    6    1        -0.1288642895E+01      0.3137498899E+01
          0                 3           2             4    7     1       0.1607089182E-02       5    6    1         0.9019891729E-01      0.2196034115E+00
          0                 4           1             4    7     1      -0.6394759592E-04       5    6    1        -0.3688562900E-02      0.8980359419E-02

    ------------------------------------------------
       NWT REQUIRED            4 OUTER ITERATIONS 
       AND A TOTAL OF          7 INNER ITERATIONS.
    ------------------------------------------------

 NO OUTPUT CONTROL FOR STRESS PERIOD    6   TIME STEP    8
 
 SOLVING FOR HEAD 
                                                   Max.-Head-Change                         Max.-Flux-Residual
  Residual-Control   Outer-Iter.   Inner-Iter.     Column Row Layer    Maximum-Head-Change  Column Row Layer    Maximum-Flux-Residual          L2-NORM 
          0                 1           2             2   13     1       0.1117582355E-01       2   13    1         0.6355861592E+00      0.1600052124E+01
          0                 2           2             4    7     1      -0.2361790210E-01       5    6    1        -0.1290297710E+01      0.3140540641E+01
          0                 3           2             4    7     1       0.1608288711E-02       5    6    1         0.9031528771E-01      0.2198191799E+00
          0                 4           1             4    7     1      -0.6399532644E-04       5    6    1        -0.3693374163E-02      0.8989341704E-02

    ------------------------------------------------
       NWT REQUIRED            4 OUTER ITERATIONS 
       AND A TOTAL OF          7 INNER ITERATIONS.
    ------------------------------------------------

 NO OUTPUT CONTROL FOR STRESS PERIOD    6   TIME STEP    9
 
 SOLVING FOR HEAD 
                                                   Max.-Head-Change                         Max.-Flux-Residual
  Residual-Control   Outer-Iter.   Inner-Iter.     Column Row Layer    Maximum-Head-Change  Column Row Layer    Maximum-Flux-Residual          L2-NORM 
          0                 1           2             2   13     1       0.1023215818E-01       2   13    1         0.5819113523E+00      0.1569097946E+01
          0                 2           2             4    7     1      -0.2363564253E-01       5    6    1        -0.1291877676E+01      0.3143543184E+01
          0                 3           2             4    7     1       0.1609496779E-02       5    6    1         0.9042638777E-01      0.2200318632E+00
          0                 4           1             4    7     1      -0.6404339659E-04       5    6    1        -0.3697966895E-02      0.8998225579E-02

    ------------------------------------------------
       NWT REQUIRED            4 OUTER ITERATIONS 
       AND A TOTAL OF          7 INNER ITERATIONS.
    ------------------------------------------------

 NO OUTPUT CONTROL FOR STRESS PERIOD    6   TIME STEP   10
 
 SOLVING FOR HEAD 
                                                   Max.-Head-Change                         Max.-Flux-Residual
  Residual-Control   Outer-Iter.   Inner-Iter.     Column Row Layer    Maximum-Head-Change  Column Row Layer    Maximum-Flux-Residual          L2-NORM 
          0                 1           2             2   13     1       0.9367618423E-02       2   13    1         0.5327273196E+00      0.1547632578E+01
          0                 2           2             4    7     1      -0.2365347288E-01       5    6    1        -0.1293387171E+01      0.3146498408E+01
          0                 3           2             4    7     1       0.1610710969E-02       5    6    1         0.9053252478E-01      0.2202408787E+00
          0                 4           1             4    7     1      -0.6409170989E-04       5    6    1        -0.3702353683E-02      0.9006909742E-02

    ------------------------------------------------
       NWT REQUIRED            4 OUTER ITERATIONS 
       AND A TOTAL OF          7 INNER ITERATIONS.
    ------------------------------------------------

 NO OUTPUT CONTROL FOR STRESS PERIOD    6   TIME STEP   11
 
 SOLVING FOR HEAD 
                                                   Max.-Head-Change                         Max.-Flux-Residual
  Residual-Control   Outer-Iter.   Inner-Iter.     Column Row Layer    Maximum-Head-Change  Column Row Layer    Maximum-Flux-Residual          L2-NORM 
          0                 1           2             5    6     1       0.9187554614E-02       5    6    1         0.4989298436E+00      0.1533934354E+01
          0                 2           2             4    7     1      -0.2367139700E-01       5    6    1        -0.1294830725E+01      0.3149400767E+01
          0                 3           2             4    7     1       0.1611931543E-02       5    6    1         0.9063401828E-01      0.2204460097E+00
          0                 4           1             4    7     1      -0.6414027808E-04       5    6    1        -0.3706547873E-02      0.9015450586E-02

    ------------------------------------------------
       NWT REQUIRED            4 OUTER ITERATIONS 
       AND A TOTAL OF          7 INNER ITERATIONS.
    ------------------------------------------------

 NO OUTPUT CONTROL FOR STRESS PERIOD    6   TIME STEP   12
 
 SOLVING FOR HEAD 
                                                   Max.-Head-Change                         Max.-Flux-Residual
  Residual-Control   Outer-Iter.   Inner-Iter.     Column Row Layer    Maximum-Head-Change  Column Row Layer    Maximum-Flux-Residual          L2-NORM 
          0                 1           2             5    6     1       0.9441989140E-02       5    6    1         0.5127388490E+00      0.1526548350E+01
          0                 2           2             4    7     1      -0.2368935619E-01       5    6    1        -0.1296212099E+01      0.3152245112E+01
          0                 3           2             4    7     1       0.1613154504E-02       5    6    1         0.9073113265E-01      0.2206467254E+00
          0                 4           1             4    7     1      -0.6418894067E-04       5    6    1        -0.3710560392E-02      0.9023771127E-02

    ------------------------------------------------
       NWT REQUIRED            4 OUTER ITERATIONS 
       AND A TOTAL OF          7 INNER ITERATIONS.
    ------------------------------------------------

 NO OUTPUT CONTROL FOR STRESS PERIOD    6   TIME STEP   13
 
 SOLVING FOR HEAD 
                                                   Max.-Head-Change                         Max.-Flux-Residual
  Residual-Control   Outer-Iter.   Inner-Iter.     Column Row Layer    Maximum-Head-Change  Column Row Layer    Maximum-Flux-Residual          L2-NORM 
          0                 1           2             5    6     1       0.9685845979E-02       5    6    1         0.5259642382E+00      0.1524252898E+01
          0                 2           2             4    7     1      -0.2370733169E-01       5    6    1        -0.1297535231E+01      0.3155030854E+01
          0                 3           2             4    7     1       0.1614378573E-02       5    6    1         0.9082414522E-01      0.2208430825E+00
          0                 4           1             4    7     1      -0.6423764725E-04       5    6    1        -0.3714402760E-02      0.9031899597E-02

    ------------------------------------------------
       NWT REQUIRED            4 OUTER ITERATIONS 
       AND A TOTAL OF          7 INNER ITERATIONS.
    ------------------------------------------------

 NO OUTPUT CONTROL FOR STRESS PERIOD    6   TIME STEP   14
 
 SOLVING FOR HEAD 
                                                   Max.-Head-Change                         Max.-Flux-Residual
  Residual-Control   Outer-Iter.   Inner-Iter.     Column Row Layer    Maximum-Head-Change  Column Row Layer    Maximum-Flux-Residual          L2-NORM 
          0                 1           2             5    6     1       0.9919745438E-02       5    6    1         0.5386411795E+00      0.1526035333E+01
          0                 2           2             4    7     1      -0.2372532323E-01       5    6    1        -0.1298803398E+01      0.3157756567E+01
          0                 3           2             4    7     1       0.1615603735E-02       5    6    1         0.9091328756E-01      0.2210351618E+00
          0                 4           1             4    7     1      -0.6428639780E-04       5    6    1        -0.3718084605E-02      0.9039830455E-02

    ------------------------------------------------
       NWT REQUIRED            4 OUTER ITERATIONS 
       AND A TOTAL OF          7 INNER ITERATIONS.
    ------------------------------------------------

 NO OUTPUT CONTROL FOR STRESS PERIOD    6   TIME STEP   15
 
 SOLVING FOR HEAD 
                                                   Max.-Head-Change                         Max.-Flux-Residual
  Residual-Control   Outer-Iter.   Inner-Iter.     Column Row Layer    Maximum-Head-Change  Column Row Layer    Maximum-Flux-Residual          L2-NORM 
          0                 1           2             5    6     1       0.1014396852E-01       5    6    1         0.5507852326E+00      0.1531047660E+01
          0                 2           2             4    7     1      -0.2374328491E-01       5    6    1        -0.1300018277E+01      0.3160419337E+01
          0                 3           2             4    7     1       0.1616826862E-02       5    6    1         0.9099867708E-01      0.2212225942E+00
          0                 4           1             4    7     1      -0.6433506684E-04       5    6    1        -0.3721610778E-02      0.9047594666E-02

    ------------------------------------------------
       NWT REQUIRED            4 OUTER ITERATIONS 
       AND A TOTAL OF          7 INNER ITERATIONS.
    ------------------------------------------------

 NO OUTPUT CONTROL FOR STRESS PERIOD    6   TIME STEP   16
 
 SOLVING FOR HEAD 
                                                   Max.-Head-Change                         Max.-Flux-Residual
  Residual-Control   Outer-Iter.   Inner-Iter.     Column Row Layer    Maximum-Head-Change  Column Row Layer    Maximum-Flux-Residual          L2-NORM 
          0                 1           2             5    6     1       0.1035938204E-01       5    6    1         0.5624441632E+00      0.1538623553E+01
          0                 2           2             4    7     1      -0.2376122742E-01       5    6    1        -0.1301184762E+01      0.3163022390E+01
          0                 3           2             4    7     1       0.1618048682E-02       5    6    1         0.9108065853E-01      0.2214056493E+00
          0                 4           1             4    7     1      -0.6438368430E-04       5    6    1        -0.3724995556E-02      0.9055148502E-02

    ------------------------------------------------
       NWT REQUIRED            4 OUTER ITERATIONS 
       AND A TOTAL OF          7 INNER ITERATIONS.
    ------------------------------------------------

 NO OUTPUT CONTROL FOR STRESS PERIOD    6   TIME STEP   17
 
 SOLVING FOR HEAD 
                                                   Max.-Head-Change                         Max.-Flux-Residual
  Residual-Control   Outer-Iter.   Inner-Iter.     Column Row Layer    Maximum-Head-Change  Column Row Layer    Maximum-Flux-Residual          L2-NORM 
          0                 1           2             5    6     1       0.1056648898E-01       5    6    1         0.5736463222E+00      0.1548229272E+01
          0                 2           2             4    7     1      -0.2377910181E-01       5    6    1        -0.1302305452E+01      0.3165566054E+01
          0                 3           2             4    7     1       0.1619265862E-02       5    6    1         0.9115941613E-01      0.2215844468E+00
          0                 4           1             4    7     1      -0.6443211733E-04       5    6    1        -0.3728246715E-02      0.9062518479E-02

    ------------------------------------------------
       NWT REQUIRED            4 OUTER ITERATIONS 
       AND A TOTAL OF          7 INNER ITERATIONS.
    ------------------------------------------------

 NO OUTPUT CONTROL FOR STRESS PERIOD    6   TIME STEP   18
 
 SOLVING FOR HEAD 
                                                   Max.-Head-Change                         Max.-Flux-Residual
  Residual-Control   Outer-Iter.   Inner-Iter.     Column Row Layer    Maximum-Head-Change  Column Row Layer    Maximum-Flux-Residual          L2-NORM 
          0                 1           2             5    6     1       0.1076576565E-01       5    6    1         0.5844177807E+00      0.1559372298E+01
          0                 2           2             4    7     1      -0.2379689443E-01       5    6    1        -0.1303383071E+01      0.3168048227E+01
          0                 3           2             4    7     1       0.1620477474E-02       5    6    1         0.9123513925E-01      0.2217588810E+00
          0                 4           1             4    7     1      -0.6448032817E-04       5    6    1        -0.3731371856E-02      0.9069665432E-02

    ------------------------------------------------
       NWT REQUIRED            4 OUTER ITERATIONS 
       AND A TOTAL OF          7 INNER ITERATIONS.
    ------------------------------------------------

 NO OUTPUT CONTROL FOR STRESS PERIOD    6   TIME STEP   19
 
 SOLVING FOR HEAD 
                                                   Max.-Head-Change                         Max.-Flux-Residual
  Residual-Control   Outer-Iter.   Inner-Iter.     Column Row Layer    Maximum-Head-Change  Column Row Layer    Maximum-Flux-Residual          L2-NORM 
          0                 1           2             5    6     1       0.1095704480E-01       5    6    1         0.5947500524E+00      0.1571714290E+01
          0                 2           2             4    7     1      -0.2381461738E-01       5    6    1        -0.1304416771E+01      0.3170472009E+01
          0                 3           2             4    7     1       0.1621684340E-02       5    6    1         0.9130777158E-01      0.2219291564E+00
          0                 4           1             4    7     1      -0.6452835065E-04       5    6    1        -0.3734369007E-02      0.9076713149E-02

    ------------------------------------------------
       NWT REQUIRED            4 OUTER ITERATIONS 
       AND A TOTAL OF          7 INNER ITERATIONS.
    ------------------------------------------------

 NO OUTPUT CONTROL FOR STRESS PERIOD    6   TIME STEP   20
 
 SOLVING FOR HEAD 
                                                   Max.-Head-Change                         Max.-Flux-Residual
  Residual-Control   Outer-Iter.   Inner-Iter.     Column Row Layer    Maximum-Head-Change  Column Row Layer    Maximum-Flux-Residual          L2-NORM 
          0                 1           2             5    6     1       0.1114168331E-01       5    6    1         0.6047174356E+00      0.1584966776E+01
          0                 2           2             5    7     1      -0.2383233558E-01       5    6    1        -0.1305414102E+01      0.3172839240E+01
          0                 3           2             5    7     1       0.1622890778E-02       5    6    1         0.9137784186E-01      0.2220953435E+00
          0                 4           1             5    7     1      -0.6457644843E-04       5    6    1        -0.3737259789E-02      0.9083554897E-02

    ------------------------------------------------
       NWT REQUIRED            4 OUTER ITERATIONS 
       AND A TOTAL OF          7 INNER ITERATIONS.
    ------------------------------------------------

 NO OUTPUT CONTROL FOR STRESS PERIOD    6   TIME STEP   21
 
 SOLVING FOR HEAD 
                                                   Max.-Head-Change                         Max.-Flux-Residual
  Residual-Control   Outer-Iter.   Inner-Iter.     Column Row Layer    Maximum-Head-Change  Column Row Layer    Maximum-Flux-Residual          L2-NORM 
          0                 1           2             5    6     1       0.1131915033E-01       5    6    1         0.6142907237E+00      0.1598887302E+01
          0                 2           2             5    7     1      -0.2385041682E-01       5    6    1        -0.1306371904E+01      0.3175150087E+01
          0                 3           2             5    7     1       0.1624122044E-02       5    6    1         0.9144512930E-01      0.2222575494E+00
          0                 4           1             5    7     1      -0.6462544167E-04       5    6    1        -0.3740035238E-02      0.9090226225E-02

    ------------------------------------------------
       NWT REQUIRED            4 OUTER ITERATIONS 
       AND A TOTAL OF          7 INNER ITERATIONS.
    ------------------------------------------------

 NO OUTPUT CONTROL FOR STRESS PERIOD    6   TIME STEP   22
 
 SOLVING FOR HEAD 
                                                   Max.-Head-Change                         Max.-Flux-Residual
  Residual-Control   Outer-Iter.   Inner-Iter.     Column Row Layer    Maximum-Head-Change  Column Row Layer    Maximum-Flux-Residual          L2-NORM 
          0                 1           2             5    6     1       0.1149043920E-01       5    6    1         0.6235253542E+00      0.1613297194E+01
          0                 2           2             5    7     1      -0.2386804524E-01       5    6    1        -0.1307295841E+01      0.3177406597E+01
          0                 3           2             5    7     1       0.1625322473E-02       5    6    1         0.9151003181E-01      0.2224159141E+00
          0                 4           1             5    7     1      -0.6467320765E-04       5    6    1        -0.3742711737E-02      0.9096725597E-02

    ------------------------------------------------
       NWT REQUIRED            4 OUTER ITERATIONS 
       AND A TOTAL OF          7 INNER ITERATIONS.
    ------------------------------------------------

 NO OUTPUT CONTROL FOR STRESS PERIOD    6   TIME STEP   23
 
 SOLVING FOR HEAD 
                                                   Max.-Head-Change                         Max.-Flux-Residual
  Residual-Control   Outer-Iter.   Inner-Iter.     Column Row Layer    Maximum-Head-Change  Column Row Layer    Maximum-Flux-Residual          L2-NORM 
          0                 1           2             5    6     1       0.1165558625E-01       5    6    1         0.6324230682E+00      0.1628029907E+01
          0                 2           2             5    7     1      -0.2388529295E-01       5    6    1        -0.1308186100E+01      0.3179609552E+01
          0                 3           2             5    7     1       0.1626496977E-02       5    6    1         0.9157256343E-01      0.2225705014E+00
          0                 4           1             5    7     1      -0.6471994278E-04       5    6    1        -0.3745289966E-02      0.9103077465E-02

    ------------------------------------------------
       NWT REQUIRED            4 OUTER ITERATIONS 
       AND A TOTAL OF          7 INNER ITERATIONS.
    ------------------------------------------------

 NO OUTPUT CONTROL FOR STRESS PERIOD    6   TIME STEP   24
 
 SOLVING FOR HEAD 
                                                   Max.-Head-Change                         Max.-Flux-Residual
  Residual-Control   Outer-Iter.   Inner-Iter.     Column Row Layer    Maximum-Head-Change  Column Row Layer    Maximum-Flux-Residual          L2-NORM 
          0                 1           2             5    6     1       0.1181522464E-01       5    6    1         0.6410188781E+00      0.1642991853E+01
          0                 2           2             5    7     1      -0.2390217012E-01       5    6    1        -0.1309046140E+01      0.3181762574E+01
          0                 3           2             5    7     1       0.1627646248E-02       5    6    1         0.9163292253E-01      0.2227214760E+00
          0                 4           1             5    7     1      -0.6476567262E-04       5    6    1        -0.3747773780E-02      0.9109283954E-02

    ------------------------------------------------
       NWT REQUIRED            4 OUTER ITERATIONS 
       AND A TOTAL OF          7 INNER ITERATIONS.
    ------------------------------------------------

 NO OUTPUT CONTROL FOR STRESS PERIOD    6   TIME STEP   25
 
 SOLVING FOR HEAD 
                                                   Max.-Head-Change                         Max.-Flux-Residual
  Residual-Control   Outer-Iter.   Inner-Iter.     Column Row Layer    Maximum-Head-Change  Column Row Layer    Maximum-Flux-Residual          L2-NORM 
          0                 1           2             5    6     1       0.1196934352E-01       5    6    1         0.6493125128E+00      0.1658053004E+01
          0                 2           2             5    7     1      -0.2391862932E-01       5    6    1        -0.1309875977E+01      0.3183864099E+01
          0                 3           2             5    7     1       0.1628767057E-02       5    6    1         0.9169112773E-01      0.2228687373E+00
          0                 4           1             5    7     1      -0.6481027121E-04       5    6    1        -0.3750165645E-02      0.9115317339E-02

    ------------------------------------------------
       NWT REQUIRED            4 OUTER ITERATIONS 
       AND A TOTAL OF          7 INNER ITERATIONS.
    ------------------------------------------------

 NO OUTPUT CONTROL FOR STRESS PERIOD    6   TIME STEP   26
 
 SOLVING FOR HEAD 
                                                   Max.-Head-Change                         Max.-Flux-Residual
  Residual-Control   Outer-Iter.   Inner-Iter.     Column Row Layer    Maximum-Head-Change  Column Row Layer    Maximum-Flux-Residual          L2-NORM 
          0                 1           2             5    6     1       0.1211793327E-01       5    6    1         0.6573033559E+00      0.1673146244E+01
          0                 2           2             4    7     1      -0.2393520268E-01       5    6    1        -0.1310675535E+01      0.3185916891E+01
          0                 3           2             4    7     1       0.1629895730E-02       5    6    1         0.9174717351E-01      0.2230125601E+00
          0                 4           1             4    7     1      -0.6485508969E-04       5    6    1        -0.3752465329E-02      0.9121211952E-02

    ------------------------------------------------
       NWT REQUIRED            4 OUTER ITERATIONS 
       AND A TOTAL OF          7 INNER ITERATIONS.
    ------------------------------------------------

 NO OUTPUT CONTROL FOR STRESS PERIOD    6   TIME STEP   27
 
 SOLVING FOR HEAD 
                                                   Max.-Head-Change                         Max.-Flux-Residual
  Residual-Control   Outer-Iter.   Inner-Iter.     Column Row Layer    Maximum-Head-Change  Column Row Layer    Maximum-Flux-Residual          L2-NORM 
          0                 1           2             5    6     1       0.1226190174E-01       5    6    1         0.6650406960E+00      0.1688223604E+01
          0                 2           2             4    7     1      -0.2395182555E-01       5    6    1        -0.1311449743E+01      0.3187923958E+01
          0                 3           2             4    7     1       0.1631027681E-02       5    6    1         0.9180136836E-01      0.2231530877E+00
          0                 4           1             4    7     1      -0.6490013129E-04       5    6    1        -0.3754681915E-02      0.9126950055E-02

    ------------------------------------------------
       NWT REQUIRED            4 OUTER ITERATIONS 
       AND A TOTAL OF          7 INNER ITERATIONS.
    ------------------------------------------------

 NO OUTPUT CONTROL FOR STRESS PERIOD    6   TIME STEP   28
 
 SOLVING FOR HEAD 
                                                   Max.-Head-Change                         Max.-Flux-Residual
  Residual-Control   Outer-Iter.   Inner-Iter.     Column Row Layer    Maximum-Head-Change  Column Row Layer    Maximum-Flux-Residual          L2-NORM 
          0                 1           2             5    6     1       0.1240117804E-01       5    6    1         0.6725218293E+00      0.1703221389E+01
          0                 2           2             4    7     1      -0.2396829547E-01       5    6    1        -0.1312198211E+01      0.3189884515E+01
          0                 3           2             4    7     1       0.1632149217E-02       5    6    1         0.9185376140E-01      0.2232903841E+00
          0                 4           1             4    7     1      -0.6494475820E-04       5    6    1        -0.3756824790E-02      0.9132574584E-02

    ------------------------------------------------
       NWT REQUIRED            4 OUTER ITERATIONS 
       AND A TOTAL OF          7 INNER ITERATIONS.
    ------------------------------------------------

 NO OUTPUT CONTROL FOR STRESS PERIOD    6   TIME STEP   29
 
 SOLVING FOR HEAD 
                                                   Max.-Head-Change                         Max.-Flux-Residual
  Residual-Control   Outer-Iter.   Inner-Iter.     Column Row Layer    Maximum-Head-Change  Column Row Layer    Maximum-Flux-Residual          L2-NORM 
          0                 1           2             5    6     1       0.1253412570E-01       5    6    1         0.6797596702E+00      0.1703364184E+01
          0                 2           2             4    7     1      -0.2398455598E-01       5    6    1        -0.1312922463E+01      0.3191724361E+01
          0                 3           2             4    7     1       0.1633256491E-02       5    6    1         0.9190445999E-01      0.2234194021E+00
          0                 4           1             4    7     1      -0.6498881754E-04       5    6    1        -0.3758898350E-02      0.9137875639E-02

    ------------------------------------------------
       NWT REQUIRED            4 OUTER ITERATIONS 
       AND A TOTAL OF          7 INNER ITERATIONS.
    ------------------------------------------------

 NO OUTPUT CONTROL FOR STRESS PERIOD    6   TIME STEP   30



 STREAM LISTING     PERIOD      6   STEP       30

 LAYER ROW COL. STREAM  RCH.  FLOW INTO     FLOW TO   FLOW OUT OF   OVRLND.     DIRECT     STREAM       STREAM     STREAM     STREAM   STREAMBED  STREAMBED
                SEG.NO.  NO.  STRM. RCH.    AQUIFER    STRM. RCH.    RUNOFF     PRECIP       ET          HEAD       DEPTH      WIDTH   CONDCTNC.   GRADIENT

   1    1    1     1     1    9.2355E+01  4.5966E-01   9.1895E+01  0.000E+00  0.000E+00  0.000E+00  1.09482E+03  1.771E+00  2.141E+01  9.635E-02  1.590E+00
   1    2    2     1     2    9.1895E+01  7.1318E-01   9.1182E+01  0.000E+00  0.000E+00  0.000E+00  1.08983E+03  1.769E+00  2.136E+01  1.496E-01  1.590E+00
   1    3    3     1     3    9.1182E+01  6.0950E-01   9.0573E+01  0.000E+00  0.000E+00  0.000E+00  1.08418E+03  1.766E+00  2.131E+01  1.279E-01  1.589E+00
   1    3    4     1     4    9.0573E+01  5.6231E-01   9.0010E+01  0.000E+00  0.000E+00  0.000E+00  1.07917E+03  1.764E+00  2.127E+01  1.180E-01  1.588E+00
   1    4    5     2     1    8.8010E+01  4.3413E-01   8.7576E+01  0.000E+00  0.000E+00  0.000E+00  1.07450E+03  2.566E+00  1.200E+01  7.800E-02  1.855E+00
   1    5    6     2     2    8.7576E+01  3.3354E-01   8.7243E+01  0.000E+00  0.000E+00  0.000E+00  1.06907E+03  2.559E+00  1.200E+01  6.000E-02  1.853E+00
   1    6    6     2     3    8.7243E+01  3.3319E-01   8.6909E+01  0.000E+00  0.000E+00  0.000E+00  1.06435E+03  2.553E+00  1.200E+01  6.000E-02  1.851E+00
   1    7    6     2     4    8.6909E+01  3.3284E-01   8.6576E+01  0.000E+00  0.000E+00  0.000E+00  1.05962E+03  2.547E+00  1.200E+01  6.000E-02  1.849E+00
   1    8    6     2     5    8.6576E+01  3.3249E-01   8.6244E+01  0.000E+00  0.000E+00  0.000E+00  1.05490E+03  2.541E+00  1.200E+01  6.000E-02  1.847E+00
   1    3    5     3     1    2.0000E+00  2.8252E-01   1.7175E+00  0.000E+00  0.000E+00  0.000E+00  1.07555E+03  1.909E+00  9.636E+00  7.227E-02  1.955E+00
   1    3    6     3     2    1.7175E+00  2.4905E-01   1.4684E+00  0.000E+00  0.000E+00  0.000E+00  1.07264E+03  1.727E+00  8.909E+00  6.682E-02  1.864E+00
   1    3    7     3     3    1.4684E+00  1.9718E-01   1.2712E+00  0.000E+00  0.000E+00  0.000E+00  1.06987E+03  1.555E+00  8.218E+00  5.547E-02  1.777E+00
   1    4    8     3     4    1.2712E+00  2.2567E-01   1.0456E+00  0.000E+00  0.000E+00  0.000E+00  1.06682E+03  1.364E+00  7.455E+00  6.709E-02  1.682E+00
   1    5    8     3     5    1.0456E+00  1.5790E-01   8.8768E-01  0.000E+00  0.000E+00  0.000E+00  1.06362E+03  1.164E+00  6.655E+00  4.991E-02  1.582E+00
   1    6    8     3     6    8.8768E-01  5.5980E-02   8.3170E-01  0.000E+00  0.000E+00  0.000E+00  1.06158E+03  1.036E+00  6.145E+00  1.844E-02  1.518E+00
   1    5   10     4     1    1.0000E+01  9.0919E-02   9.9091E+00  0.000E+00  0.000E+00  0.000E+00  1.07836E+03  6.368E-01  1.000E+01  2.500E-02  1.212E+00
   1    5    9     4     2    9.9091E+00  1.8158E-01   9.7275E+00  0.000E+00  0.000E+00  0.000E+00  1.07154E+03  6.315E-01  1.000E+01  5.000E-02  1.211E+00
   1    6    8     4     3    9.7275E+00  1.2689E-01   9.6006E+00  0.000E+00  0.000E+00  0.000E+00  1.06381E+03  6.256E-01  1.000E+01  3.500E-02  1.209E+00
   1    6    8     5     1    1.0432E+01  2.2686E-01   1.0205E+01  0.000E+00  0.000E+00  0.000E+00  1.05868E+03  6.790E-01  1.542E+01  6.166E-02  1.226E+00
   1    7    7     5     2    1.0205E+01  2.7894E-01   9.9265E+00  0.000E+00  0.000E+00  0.000E+00  1.05417E+03  6.732E-01  1.519E+01  7.594E-02  1.224E+00
   1    8    7     5     3    9.9265E+00  1.9221E-01   9.7343E+00  0.000E+00  0.000E+00  0.000E+00  1.04992E+03  6.676E-01  1.497E+01  5.241E-02  1.223E+00
   1    8    6     5     4    9.7343E+00  1.3577E-01   9.5985E+00  0.000E+00  0.000E+00  0.000E+00  1.04691E+03  6.637E-01  1.482E+01  3.706E-02  1.221E+00
   1    9    6     6     1    9.5843E+01  3.4390E-01   9.5499E+01  0.000E+00  0.000E+00  0.000E+00  1.04546E+03  2.732E+00  1.200E+01  6.000E-02  1.911E+00
   1   10    7     6     2    9.5499E+01  3.4355E-01   9.5155E+01  0.000E+00  0.000E+00  0.000E+00  1.04091E+03  2.726E+00  1.200E+01  6.000E-02  1.909E+00
   1   11    7     6     3    9.5155E+01  3.4320E-01   9.4812E+01  0.000E+00  0.000E+00  0.000E+00  1.03636E+03  2.720E+00  1.200E+01  6.000E-02  1.907E+00
   1   12    7     6     4    9.4812E+01  3.4284E-01   9.4469E+01  0.000E+00  0.000E+00  0.000E+00  1.03180E+03  2.714E+00  1.200E+01  6.000E-02  1.905E+00
   1   13    7     6     5    9.4469E+01  3.3805E-02   9.4435E+01  0.000E+00  0.000E+00  0.000E+00  1.02862E+03  2.711E+00  1.200E+01  2.400E-02  4.695E-01
   1   14    9     7     1    1.5000E+02  1.3319E+00   1.4867E+02  0.000E+00  0.000E+00  0.000E+00  1.03987E+03  2.288E+00  5.529E+01  5.593E-01  7.938E-01
   1   13    8     7     2    1.4867E+02  1.8070E+00   1.4686E+02  0.000E+00  0.000E+00  0.000E+00  1.03478E+03  2.279E+00  5.526E+01  6.148E-01  9.797E-01
   1   13    7     7     3    1.4686E+02  1.3844E+00   1.4548E+02  0.000E+00  0.000E+00  0.000E+00  1.02969E+03  2.271E+00  5.522E+01  5.585E-01  8.263E-01
   1   13    6     8     1    2.3991E+02  1.1021E+00   2.3881E+02  0.000E+00  0.000E+00  0.000E+00  1.02523E+03  3.356E+00  4.867E+01  4.959E-01  7.407E-01
   1   13    5     8     2    2.3881E+02  2.5269E-01   2.3856E+02  0.000E+00  0.000E+00  0.000E+00  1.01898E+03  3.353E+00  4.862E+01  4.954E-01  1.700E-01
   1   13    4     8     3    2.3856E+02 -2.1548E+00   2.4071E+02  0.000E+00  0.000E+00  0.000E+00  1.01273E+03  3.358E+00  4.869E+01  4.962E+00 -1.448E-01
   1   13    3     8     4    2.4071E+02 -3.3590E+00   2.4407E+02  0.000E+00  0.000E+00  0.000E+00  1.00650E+03  3.372E+00  4.890E+01  4.983E+00 -2.247E-01
   1   13    2     8     5    2.4407E+02 -2.5225E+00   2.4659E+02  0.000E+00  0.000E+00  0.000E+00  1.00026E+03  3.388E+00  4.912E+01  5.005E+00 -1.680E-01
   1   13    1     8     6    2.4659E+02 -1.8906E+00   2.4848E+02  0.000E+00  0.000E+00  0.000E+00  9.95274E+02  3.399E+00  4.928E+01  3.013E+00 -2.091E-01





UNSATURATED ZONE PACKAGE VOLUMETRIC BUDGET FOR  TIME STEP    30 STRESS PERIOD    6
  ------------------------------------------------------------------------------



     CUMULATIVE VOLUMES      L**3       RATES FOR THIS TIME STEP      L**3/T
     ------------------                 ------------------------

           IN:                                      IN:
           ---                                      ---
        INFILTRATION =    40650957.7734          INFILTRATION =           8.3172

          OUT:                                     OUT:
          ----                                     ----
              UZF ET =    40490513.5697                UZF ET =           8.3175
        UZF RECHARGE =       73224.0000          UZF RECHARGE =       0.0000E+00

            IN - OUT =       87220.2037              IN - OUT =      -3.2043E-04

          STORAGE:                                 STORAGE:
          --------                                 --------
      STORAGE CHANGE =       87219.4432        STORAGE CHANGE =      -3.2027E-04

 PERCENT DISCREPANCY IS DIFFERENCE BETWEEN IN-OUT MINUS CHANGE IN STORAGE
 DIVIDED BY THE AVERAGE OF IN AND OUT TIMES 100

 PERCENT DISCREPANCY =           0.00     PERCENT DISCREPANCY =           0.00






1
  VOLUMETRIC BUDGET FOR AGRICULTURAL FIELDS AT  END OF TIME STEP   30, STRESS PERIOD   6
  ------------------------------------------------------------------------------

     CUMULATIVE VOLUMES      L**3       RATES FOR THIS TIME STEP      L**3/T
     ------------------                 ------------------------

           IN:                                      IN:
           ---                                      ---
               AG WELLS  =    29433108.0000                 AG WELLS  =           7.4697
      DIVERSION SEGMENTS =           0.0000        DIVERSION SEGMENTS =           0.0000
       IRRIGATION PONDS  =           0.0000         IRRIGATION PONDS  =           0.0000
           GW IRRIGATION =           0.0000             GW IRRIGATION =           0.0000
           SW IRRIGATION =           0.0000             SW IRRIGATION =           0.0000
        SYSTEM LOSSES GW =           0.0000          SYSTEM LOSSES GW =           0.0000
        SYSTEM LOSSES SW =           0.0000          SYSTEM LOSSES SW =           0.0000

                TOTAL IN =    29433108.0000                  TOTAL IN =           7.4697

          OUT:                                     OUT:
          ----                                     ----
               AG WELLS  =           0.0000                 AG WELLS  =           0.0000
      DIVERSION SEGMENTS =           0.0000        DIVERSION SEGMENTS =           0.0000
       IRRIGATION PONDS  =           0.0000         IRRIGATION PONDS  =           0.0000
           GW IRRIGATION =    29433108.0000             GW IRRIGATION =           7.4697
           SW IRRIGATION =           0.0000             SW IRRIGATION =           0.0000
        SYSTEM LOSSES GW =           0.0000          SYSTEM LOSSES GW =           0.0000
        SYSTEM LOSSES SW =           0.0000          SYSTEM LOSSES SW =           0.0000

               TOTAL OUT =    29433108.0000                 TOTAL OUT =           7.4697

                IN - OUT =           0.0000                  IN - OUT =           0.0000

     PERCENT DISCREPANCY =           0.00         PERCENT DISCREPANCY =           0.00



1
  VOLUMETRIC BUDGET FOR ENTIRE MODEL AT END OF TIME STEP   30, STRESS PERIOD   6
  ------------------------------------------------------------------------------

     CUMULATIVE VOLUMES      L**3       RATES FOR THIS TIME STEP      L**3/T
     ------------------                 ------------------------

           IN:                                      IN:
           ---                                      ---
             STORAGE     =    36219012.0000               STORAGE     =           7.0071
       CONSTANT HEAD     =           0.0000         CONSTANT HEAD     =           0.0000
     HEAD DEP BOUNDS     =     3778269.5000       HEAD DEP BOUNDS     =           0.2855
      STREAM LEAKAGE     =   166669776.0000        STREAM LEAKAGE     =          13.7976
        UZF RECHARGE     =       73223.9531          UZF RECHARGE     =           0.0000
               GW ET     =           0.0000                 GW ET     =           0.0000
     SURFACE LEAKAGE     =           0.0000       SURFACE LEAKAGE     =           0.0000
           AG WELLS      =           0.0000             AG WELLS      =           0.0000

                TOTAL IN =   206740272.0000                  TOTAL IN =          21.0902

          OUT:                                     OUT:
          ----                                     ----
             STORAGE     =    36776236.0000               STORAGE     =           2.5503
       CONSTANT HEAD     =           0.0000         CONSTANT HEAD     =           0.0000
     HEAD DEP BOUNDS     =     3885197.7500       HEAD DEP BOUNDS     =           0.3003
      STREAM LEAKAGE     =   134604448.0000        STREAM LEAKAGE     =           9.9268
        UZF RECHARGE     =           0.0000          UZF RECHARGE     =           0.0000
               GW ET     =     2045263.3750                 GW ET     =           0.8429
     SURFACE LEAKAGE     =           0.0000       SURFACE LEAKAGE     =           0.0000
           AG WELLS      =    29433108.0000             AG WELLS      =           7.4697

               TOTAL OUT =   206744256.0000                 TOTAL OUT =          21.0899

                IN - OUT =       -3984.0000                  IN - OUT =       2.8419E-04

     PERCENT DISCREPANCY =          -0.00         PERCENT DISCREPANCY =           0.00






         TIME SUMMARY AT END OF TIME STEP   30 IN STRESS PERIOD    6
                    SECONDS     MINUTES      HOURS       DAYS        YEARS
                    -----------------------------------------------------------
   TIME STEP LENGTH  87667.      1461.1      24.352      1.0147     2.77799E-03
 STRESS PERIOD TIME 2.63000E+06  43833.      730.56      30.440     8.33397E-02
         TOTAL TIME 1.32364E+07 2.20607E+05  3676.8      153.20     0.41944    
1
1
                            STRESS PERIOD NO.    7, LENGTH =   2630000.    
                            -----------------------------------------------

                              NUMBER OF TIME STEPS =    30

                               MULTIPLIER FOR DELT =     1.000

                            INITIAL TIME STEP SIZE =   87666.66    

 REUSING NON-PARAMETER GHB CELLS FROM LAST STRESS PERIOD

      2 GHB CELLS

 REUSING STREAM SEGMENT DATA FROM LAST STRESS PERIOD



            AREAL INFILTRATION RATE
 READING ON UNIT   19 WITH FORMAT: (FREE)              

            1           2           3           4           5           6           7           8           9          10
 ........................................................................................................................
   1   1.0000E-10  2.0000E-10   0.000       0.000       0.000       0.000       0.000       0.000       0.000       0.000    
   2   2.0000E-10  1.0000E-10  2.0000E-10   0.000       0.000      8.0000E-10  8.0000E-10  5.0000E-10   0.000       0.000    
   3    0.000      5.0000E-10  1.0000E-10  1.0000E-10  8.0000E-10  8.0000E-10  5.0000E-10  5.0000E-10   0.000       0.000    
   4   8.0000E-10  5.0000E-10  1.0000E-10  1.0000E-10  1.0000E-10  1.0000E-10  1.0000E-10  1.0000E-10  2.0000E-10   0.000    
   5   8.0000E-10  5.0000E-10  1.0000E-10  1.0000E-10  1.0000E-10  1.0000E-10  1.0000E-10  1.0000E-10  1.0000E-10  1.0000E-10
   6   8.0000E-10  5.0000E-10  5.0000E-10  2.0000E-10  2.0000E-10  1.0000E-10  1.0000E-10  1.0000E-10  1.0000E-10  5.0000E-10
   7   8.0000E-10  5.0000E-10  5.0000E-10  2.0000E-10  2.0000E-10  1.0000E-10  1.0000E-10  2.0000E-10  2.0000E-10   0.000    
   8    0.000      5.0000E-10  5.0000E-10  2.0000E-10  2.0000E-10  1.0000E-10  1.0000E-10  2.0000E-10  5.0000E-10   0.000    
   9    0.000      5.0000E-10  5.0000E-10  2.0000E-10  2.0000E-10  1.0000E-10  1.0000E-10  2.0000E-10  5.0000E-10   0.000    
  10    0.000      5.0000E-10  5.0000E-10  2.0000E-10  2.0000E-10  1.0000E-10  1.0000E-10  2.0000E-10  5.0000E-10  8.0000E-10
  11    0.000      1.0000E-10  1.0000E-10  1.0000E-10  1.0000E-10  1.0000E-10  1.0000E-10  2.0000E-10  5.0000E-10   0.000    
  12   1.0000E-10  1.0000E-10  1.0000E-10  1.0000E-10  1.0000E-10  1.0000E-10  1.0000E-10  1.0000E-10  2.0000E-10   0.000    
  13   1.0000E-10  1.0000E-10  2.0000E-10  2.0000E-10  2.0000E-10  2.0000E-10  2.0000E-10  1.0000E-10  1.0000E-10   0.000    
  14    0.000      2.0000E-10  5.0000E-10  5.0000E-10  5.0000E-10  5.0000E-10  5.0000E-10  2.0000E-10  1.0000E-10   0.000    
  15    0.000       0.000      8.0000E-10  8.0000E-10  8.0000E-10  8.0000E-10   0.000       0.000       0.000       0.000    

                  ET RATE =  1.500000E-07

 USING ET EXTINCTION DEPTH FROM PREVIOUS STRESS PERIOD. CURRENT PERIOD IS:       7

 USING EXTINCTION WATER CONTENT FROM PREVIOUS STRESS PERIOD. CURRENT PERIOD IS:       7

 USING AIR ENTRY PRESSURE FROM PREVIOUS STRESS PERIOD. CURRENT PERIOD IS:       7

 USING ROOT PRESSURE HEAD FROM PREVIOUS STRESS PERIOD. CURRENT PERIOD IS:       7

 USING ROOT ACTIVITY FROM PREVIOUS STRESS PERIOD. CURRENT PERIOD IS:       7

 PROCESSING AG STRESS PERIOD DATA

 READING AG STRESS PERIOD DATA

 READING IRRIGATION WELL

 NO IRRPOND OR REUSING IRRPOND DATA FROM LAST STRESS PERIOD

 END PROCESSING AG STRESS PERIOD DATA OPTIONS
 
 SOLVING FOR HEAD 
                                                   Max.-Head-Change                         Max.-Flux-Residual
  Residual-Control   Outer-Iter.   Inner-Iter.     Column Row Layer    Maximum-Head-Change  Column Row Layer    Maximum-Flux-Residual          L2-NORM 
          0                 1           2             4    7     1      -0.6351949608E-01       4    7    1        -0.3321210412E+01      0.7976676794E+01
          0                 2           2             4    7     1       0.6178670770E-02       4    7    1         0.3321182556E+00      0.7970712463E+00
          0                 3           2             4    7     1      -0.4207449619E-03       4    7    1        -0.2324831204E-01      0.5574240077E-01
          0                 4           1             4    7     1       0.1674183446E-04       4    7    1         0.9508571977E-03      0.2276934431E-02

    ------------------------------------------------
       NWT REQUIRED            4 OUTER ITERATIONS 
       AND A TOTAL OF          7 INNER ITERATIONS.
    ------------------------------------------------

 NO OUTPUT CONTROL FOR STRESS PERIOD    7   TIME STEP    1
 
 SOLVING FOR HEAD 
                                                   Max.-Head-Change                         Max.-Flux-Residual
  Residual-Control   Outer-Iter.   Inner-Iter.     Column Row Layer    Maximum-Head-Change  Column Row Layer    Maximum-Flux-Residual          L2-NORM 
          0                 1           2             3   13     1      -0.1411959106E-01       4   13    1        -0.9081585159E+00      0.2263296242E+01
          0                 2           2             4    7     1      -0.7061642252E-01       5    6    1        -0.3821375595E+01      0.9330601888E+01
          0                 3           2             4    7     1       0.4808684167E-02       5    6    1         0.2674680571E+00      0.6530786270E+00
          0                 4           2             4    7     1      -0.1913421747E-03       5    6    1        -0.1093687115E-01      0.2670740095E-01
          0                 5           1             4    7     1       0.2359331971E-05       5    6    1         0.1384277191E-03      0.3386241250E-03

    ------------------------------------------------
       NWT REQUIRED            5 OUTER ITERATIONS 
       AND A TOTAL OF          9 INNER ITERATIONS.
    ------------------------------------------------

 NO OUTPUT CONTROL FOR STRESS PERIOD    7   TIME STEP    2
 
 SOLVING FOR HEAD 
                                                   Max.-Head-Change                         Max.-Flux-Residual
  Residual-Control   Outer-Iter.   Inner-Iter.     Column Row Layer    Maximum-Head-Change  Column Row Layer    Maximum-Flux-Residual          L2-NORM 
          0                 1           2             5    6     1       0.1540925067E-01       5    6    1         0.8373738711E+00      0.2264171085E+01
          0                 2           2             4    7     1      -0.7065891795E-01       5    6    1        -0.3828701692E+01      0.9343197671E+01
          0                 3           2             4    7     1       0.4810934418E-02       5    6    1         0.2679482059E+00      0.6538780268E+00
          0                 4           2             4    7     1      -0.1914317129E-03       5    6    1        -0.1095678578E-01      0.2674024238E-01
          0                 5           1             4    7     1       0.2360435765E-05       5    6    1         0.1386988793E-03      0.3389534148E-03

    ------------------------------------------------
       NWT REQUIRED            5 OUTER ITERATIONS 
       AND A TOTAL OF          9 INNER ITERATIONS.
    ------------------------------------------------

 NO OUTPUT CONTROL FOR STRESS PERIOD    7   TIME STEP    3
 
 SOLVING FOR HEAD 
                                                   Max.-Head-Change                         Max.-Flux-Residual
  Residual-Control   Outer-Iter.   Inner-Iter.     Column Row Layer    Maximum-Head-Change  Column Row Layer    Maximum-Flux-Residual          L2-NORM 
          0                 1           2             5    6     1       0.1667807070E-01       5    6    1         0.9068443575E+00      0.2314994722E+01
          0                 2           2             4    7     1      -0.7070294565E-01       5    6    1        -0.3835648838E+01      0.9355477122E+01
          0                 3           2             4    7     1       0.4813932802E-02       5    6    1         0.2684371633E+00      0.6547421248E+00
          0                 4           2             4    7     1      -0.1915510199E-03       5    6    1        -0.1097704191E-01      0.2677576833E-01
          0                 5           1             4    7     1       0.2361907192E-05       5    6    1         0.1389730842E-03      0.3393501515E-03

    ------------------------------------------------
       NWT REQUIRED            5 OUTER ITERATIONS 
       AND A TOTAL OF          9 INNER ITERATIONS.
    ------------------------------------------------

 NO OUTPUT CONTROL FOR STRESS PERIOD    7   TIME STEP    4
 
 SOLVING FOR HEAD 
                                                   Max.-Head-Change                         Max.-Flux-Residual
  Residual-Control   Outer-Iter.   Inner-Iter.     Column Row Layer    Maximum-Head-Change  Column Row Layer    Maximum-Flux-Residual          L2-NORM 
          0                 1           2             5    6     1       0.1788361454E-01       5    6    1         0.9727968137E+00      0.2396834239E+01
          0                 2           2             4    7     1      -0.7074833363E-01       5    6    1        -0.3842244046E+01      0.9367424042E+01
          0                 3           2             4    7     1       0.4817023794E-02       5    6    1         0.2689013106E+00      0.6555829571E+00
          0                 4           2             4    7     1      -0.1916740128E-03       5    6    1        -0.1099626628E-01      0.2681038204E-01
          0                 5           1             4    7     1       0.2363423424E-05       5    6    1         0.1392330532E-03      0.3397486681E-03

    ------------------------------------------------
       NWT REQUIRED            5 OUTER ITERATIONS 
       AND A TOTAL OF          9 INNER ITERATIONS.
    ------------------------------------------------

 OUTPUT CONTROL FOR STRESS PERIOD    7   TIME STEP    5
    PRINT BUDGET
    SAVE BUDGET
 UBDSV1 SAVING "         STORAGE" ON UNIT 102 AT TIME STEP 5, STRESS PERIOD 7
 UBDSV2 SAVING "   CONSTANT HEAD" ON UNIT 102 AT TIME STEP 5, STRESS PERIOD 7
 UBDSV1 SAVING "FLOW RIGHT FACE " ON UNIT 102 AT TIME STEP 5, STRESS PERIOD 7
 UBDSV1 SAVING "FLOW FRONT FACE " ON UNIT 102 AT TIME STEP 5, STRESS PERIOD 7

  HEAD DEP BOUNDS   PERIOD    7   STEP     5
 BOUNDARY      1   LAYER   1   ROW    13   COL     1   RATE   -0.300147    
 BOUNDARY      2   LAYER   1   ROW    14   COL     9   RATE    0.285491    



 STREAM LISTING     PERIOD      7   STEP        5

 LAYER ROW COL. STREAM  RCH.  FLOW INTO     FLOW TO   FLOW OUT OF   OVRLND.     DIRECT     STREAM       STREAM     STREAM     STREAM   STREAMBED  STREAMBED
                SEG.NO.  NO.  STRM. RCH.    AQUIFER    STRM. RCH.    RUNOFF     PRECIP       ET          HEAD       DEPTH      WIDTH   CONDCTNC.   GRADIENT

   1    1    1     1     1    8.3000E+01  4.4019E-01   8.2560E+01  0.000E+00  0.000E+00  0.000E+00  1.09478E+03  1.734E+00  2.066E+01  9.299E-02  1.578E+00
   1    2    2     1     2    8.2560E+01  6.8286E-01   8.1877E+01  0.000E+00  0.000E+00  0.000E+00  1.08979E+03  1.731E+00  2.062E+01  1.443E-01  1.577E+00
   1    3    3     1     3    8.1877E+01  5.8349E-01   8.1294E+01  0.000E+00  0.000E+00  0.000E+00  1.08415E+03  1.729E+00  2.057E+01  1.234E-01  1.576E+00
   1    3    4     1     4    8.1294E+01  5.3822E-01   8.0756E+01  0.000E+00  0.000E+00  0.000E+00  1.07913E+03  1.726E+00  2.052E+01  1.139E-01  1.575E+00
   1    4    5     2     1    7.8756E+01  4.2120E-01   7.8334E+01  0.000E+00  0.000E+00  0.000E+00  1.07433E+03  2.400E+00  1.200E+01  7.800E-02  1.800E+00
   1    5    6     2     2    7.8334E+01  3.2359E-01   7.8011E+01  0.000E+00  0.000E+00  0.000E+00  1.06890E+03  2.393E+00  1.200E+01  6.000E-02  1.798E+00
   1    6    6     2     3    7.8011E+01  3.2323E-01   7.7688E+01  0.000E+00  0.000E+00  0.000E+00  1.06418E+03  2.387E+00  1.200E+01  6.000E-02  1.796E+00
   1    7    6     2     4    7.7688E+01  3.2288E-01   7.7365E+01  0.000E+00  0.000E+00  0.000E+00  1.05946E+03  2.381E+00  1.200E+01  6.000E-02  1.794E+00
   1    8    6     2     5    7.7365E+01  3.2252E-01   7.7042E+01  0.000E+00  0.000E+00  0.000E+00  1.05473E+03  2.375E+00  1.200E+01  6.000E-02  1.792E+00
   1    3    5     3     1    2.0000E+00  2.8252E-01   1.7175E+00  0.000E+00  0.000E+00  0.000E+00  1.07555E+03  1.909E+00  9.636E+00  7.227E-02  1.955E+00
   1    3    6     3     2    1.7175E+00  2.4905E-01   1.4684E+00  0.000E+00  0.000E+00  0.000E+00  1.07264E+03  1.727E+00  8.909E+00  6.682E-02  1.864E+00
   1    3    7     3     3    1.4684E+00  1.9718E-01   1.2712E+00  0.000E+00  0.000E+00  0.000E+00  1.06987E+03  1.555E+00  8.218E+00  5.547E-02  1.777E+00
   1    4    8     3     4    1.2712E+00  2.2567E-01   1.0456E+00  0.000E+00  0.000E+00  0.000E+00  1.06682E+03  1.364E+00  7.455E+00  6.709E-02  1.682E+00
   1    5    8     3     5    1.0456E+00  1.5790E-01   8.8768E-01  0.000E+00  0.000E+00  0.000E+00  1.06362E+03  1.164E+00  6.655E+00  4.991E-02  1.582E+00
   1    6    8     3     6    8.8768E-01  5.5980E-02   8.3170E-01  0.000E+00  0.000E+00  0.000E+00  1.06158E+03  1.036E+00  6.145E+00  1.844E-02  1.518E+00
   1    5   10     4     1    1.0000E+01  9.0919E-02   9.9091E+00  0.000E+00  0.000E+00  0.000E+00  1.07836E+03  6.368E-01  1.000E+01  2.500E-02  1.212E+00
   1    5    9     4     2    9.9091E+00  1.8158E-01   9.7275E+00  0.000E+00  0.000E+00  0.000E+00  1.07154E+03  6.315E-01  1.000E+01  5.000E-02  1.211E+00
   1    6    8     4     3    9.7275E+00  1.2689E-01   9.6006E+00  0.000E+00  0.000E+00  0.000E+00  1.06381E+03  6.256E-01  1.000E+01  3.500E-02  1.209E+00
   1    6    8     5     1    1.0432E+01  2.2686E-01   1.0205E+01  0.000E+00  0.000E+00  0.000E+00  1.05868E+03  6.790E-01  1.542E+01  6.166E-02  1.226E+00
   1    7    7     5     2    1.0205E+01  2.7894E-01   9.9265E+00  0.000E+00  0.000E+00  0.000E+00  1.05417E+03  6.732E-01  1.519E+01  7.594E-02  1.224E+00
   1    8    7     5     3    9.9265E+00  1.9221E-01   9.7343E+00  0.000E+00  0.000E+00  0.000E+00  1.04992E+03  6.676E-01  1.497E+01  5.241E-02  1.223E+00
   1    8    6     5     4    9.7343E+00  1.3577E-01   9.5985E+00  0.000E+00  0.000E+00  0.000E+00  1.04691E+03  6.637E-01  1.482E+01  3.706E-02  1.221E+00
   1    9    6     6     1    8.6641E+01  3.3426E-01   8.6306E+01  0.000E+00  0.000E+00  0.000E+00  1.04530E+03  2.571E+00  1.200E+01  6.000E-02  1.857E+00
   1   10    7     6     2    8.6306E+01  3.3390E-01   8.5973E+01  0.000E+00  0.000E+00  0.000E+00  1.04075E+03  2.565E+00  1.200E+01  6.000E-02  1.855E+00
   1   11    7     6     3    8.5973E+01  3.3354E-01   8.5639E+01  0.000E+00  0.000E+00  0.000E+00  1.03620E+03  2.559E+00  1.200E+01  6.000E-02  1.853E+00
   1   12    7     6     4    8.5639E+01  3.3319E-01   8.5306E+01  0.000E+00  0.000E+00  0.000E+00  1.03164E+03  2.553E+00  1.200E+01  6.000E-02  1.851E+00
   1   13    7     6     5    8.5306E+01  2.9844E-02   8.5276E+01  0.000E+00  0.000E+00  0.000E+00  1.02846E+03  2.550E+00  1.200E+01  2.400E-02  4.145E-01
   1   14    9     7     1    1.5000E+02  1.3319E+00   1.4867E+02  0.000E+00  0.000E+00  0.000E+00  1.03987E+03  2.288E+00  5.529E+01  5.593E-01  7.938E-01
   1   13    8     7     2    1.4867E+02  1.8062E+00   1.4686E+02  0.000E+00  0.000E+00  0.000E+00  1.03478E+03  2.279E+00  5.526E+01  6.148E-01  9.793E-01
   1   13    7     7     3    1.4686E+02  1.3821E+00   1.4548E+02  0.000E+00  0.000E+00  0.000E+00  1.02969E+03  2.271E+00  5.522E+01  5.585E-01  8.249E-01
   1   13    6     8     1    2.3076E+02  1.0601E+00   2.2970E+02  0.000E+00  0.000E+00  0.000E+00  1.02518E+03  3.308E+00  4.796E+01  4.888E-01  7.230E-01
   1   13    5     8     2    2.2970E+02  2.2370E-01   2.2947E+02  0.000E+00  0.000E+00  0.000E+00  1.01893E+03  3.304E+00  4.791E+01  4.882E-01  1.527E-01
   1   13    4     8     3    2.2947E+02 -2.0979E+00   2.3157E+02  0.000E+00  0.000E+00  0.000E+00  1.01268E+03  3.309E+00  4.799E+01  4.890E+00 -1.430E-01
   1   13    3     8     4    2.3157E+02 -3.2813E+00   2.3485E+02  0.000E+00  0.000E+00  0.000E+00  1.00645E+03  3.324E+00  4.819E+01  4.911E+00 -2.227E-01
   1   13    2     8     5    2.3485E+02 -2.6428E+00   2.3749E+02  0.000E+00  0.000E+00  0.000E+00  1.00021E+03  3.340E+00  4.842E+01  4.935E+00 -1.785E-01
   1   13    1     8     6    2.3749E+02 -1.9963E+00   2.3949E+02  0.000E+00  0.000E+00  0.000E+00  9.95227E+02  3.352E+00  4.860E+01  2.972E+00 -2.239E-01



 UBDSV3 SAVING "           GW ET" ON UNIT  61 AT TIME STEP 5, STRESS PERIOD 7
 UBDSV3 SAVING "    UZF RECHARGE" ON UNIT  61 AT TIME STEP 5, STRESS PERIOD 7
 UBDSV3 SAVING " SURFACE LEAKAGE" ON UNIT  61 AT TIME STEP 5, STRESS PERIOD 7
 UBDSV3 SAVING "       HORT+DUNN" ON UNIT  61 AT TIME STEP 5, STRESS PERIOD 7
 UBDSV3 SAVING "  STORAGE CHANGE" ON UNIT  61 AT TIME STEP 5, STRESS PERIOD 7


UNSATURATED ZONE PACKAGE VOLUMETRIC BUDGET FOR  TIME STEP     5 STRESS PERIOD    7
  ------------------------------------------------------------------------------



     CUMULATIVE VOLUMES      L**3       RATES FOR THIS TIME STEP      L**3/T
     ------------------                 ------------------------

           IN:                                      IN:
           ---                                      ---
        INFILTRATION =    50874407.5028          INFILTRATION =          23.3175

          OUT:                                     OUT:
          ----                                     ----
              UZF ET =    50711351.6116                UZF ET =          23.3175
        UZF RECHARGE =       73224.0000          UZF RECHARGE =       0.0000E+00

            IN - OUT =       89831.8912              IN - OUT =       0.0000E+00

          STORAGE:                                 STORAGE:
          --------                                 --------
      STORAGE CHANGE =       89831.1777        STORAGE CHANGE =       1.1412E-16

 PERCENT DISCREPANCY IS DIFFERENCE BETWEEN IN-OUT MINUS CHANGE IN STORAGE
 DIVIDED BY THE AVERAGE OF IN AND OUT TIMES 100

 PERCENT DISCREPANCY =           0.00     PERCENT DISCREPANCY =           0.00






 

            AG WELLS      PERIOD    7   STEP   5
 AG WELL      1   LAYER   1   ROW     6   COL     4   RATE    -3.74500    
 AG WELL      2   LAYER   1   ROW     6   COL     5   RATE    -3.74500    
 AG WELL      3   LAYER   1   ROW     7   COL     4   RATE    -3.74500    
 AG WELL      4   LAYER   1   ROW     7   COL     5   RATE    -3.74500    
 AG WELL      5   LAYER   1   ROW     8   COL     4   RATE    -3.74500    
 AG WELL      6   LAYER   1   ROW     8   COL     5   RATE    -3.74500    
 
 

        GW IRRIGATION     PERIOD    7   STEP   5
 AG WELL      1   ROW     6   COL     4   RATE     3.74500    
 AG WELL      2   ROW     6   COL     5   RATE     3.74500    
 AG WELL      3   ROW     7   COL     4   RATE     3.74500    
 AG WELL      4   ROW     7   COL     5   RATE     3.74500    
 AG WELL      5   ROW     8   COL     4   RATE     3.74500    
 AG WELL      6   ROW     8   COL     5   RATE     3.74500    
 
1
  VOLUMETRIC BUDGET FOR AGRICULTURAL FIELDS AT  END OF TIME STEP    5, STRESS PERIOD   7
  ------------------------------------------------------------------------------

     CUMULATIVE VOLUMES      L**3       RATES FOR THIS TIME STEP      L**3/T
     ------------------                 ------------------------

           IN:                                      IN:
           ---                                      ---
               AG WELLS  =    39285072.0000                 AG WELLS  =          22.4700
      DIVERSION SEGMENTS =           0.0000        DIVERSION SEGMENTS =           0.0000
       IRRIGATION PONDS  =           0.0000         IRRIGATION PONDS  =           0.0000
           GW IRRIGATION =           0.0000             GW IRRIGATION =           0.0000
           SW IRRIGATION =           0.0000             SW IRRIGATION =           0.0000
        SYSTEM LOSSES GW =           0.0000          SYSTEM LOSSES GW =           0.0000
        SYSTEM LOSSES SW =           0.0000          SYSTEM LOSSES SW =           0.0000

                TOTAL IN =    39285072.0000                  TOTAL IN =          22.4700

          OUT:                                     OUT:
          ----                                     ----
               AG WELLS  =           0.0000                 AG WELLS  =           0.0000
      DIVERSION SEGMENTS =           0.0000        DIVERSION SEGMENTS =           0.0000
       IRRIGATION PONDS  =           0.0000         IRRIGATION PONDS  =           0.0000
           GW IRRIGATION =    39285072.0000             GW IRRIGATION =          22.4700
           SW IRRIGATION =           0.0000             SW IRRIGATION =           0.0000
        SYSTEM LOSSES GW =           0.0000          SYSTEM LOSSES GW =           0.0000
        SYSTEM LOSSES SW =           0.0000          SYSTEM LOSSES SW =           0.0000

               TOTAL OUT =    39285072.0000                 TOTAL OUT =          22.4700

                IN - OUT =           0.0000                  IN - OUT =           0.0000

     PERCENT DISCREPANCY =           0.00         PERCENT DISCREPANCY =           0.00



1
  VOLUMETRIC BUDGET FOR ENTIRE MODEL AT END OF TIME STEP    5, STRESS PERIOD   7
  ------------------------------------------------------------------------------

     CUMULATIVE VOLUMES      L**3       RATES FOR THIS TIME STEP      L**3/T
     ------------------                 ------------------------

           IN:                                      IN:
           ---                                      ---
             STORAGE     =    46425132.0000               STORAGE     =          22.7605
       CONSTANT HEAD     =           0.0000         CONSTANT HEAD     =           0.0000
     HEAD DEP BOUNDS     =     3903409.5000       HEAD DEP BOUNDS     =           0.2855
      STREAM LEAKAGE     =   172600864.0000        STREAM LEAKAGE     =          13.5284
        UZF RECHARGE     =       73223.9531          UZF RECHARGE     =           0.0000
               GW ET     =           0.0000                 GW ET     =           0.0000
     SURFACE LEAKAGE     =           0.0000       SURFACE LEAKAGE     =           0.0000
           AG WELLS      =           0.0000             AG WELLS      =           0.0000

                TOTAL IN =   223002624.0000                  TOTAL IN =          36.5744

          OUT:                                     OUT:
          ----                                     ----
             STORAGE     =    37711524.0000               STORAGE     =           2.0610
       CONSTANT HEAD     =           0.0000         CONSTANT HEAD     =           0.0000
     HEAD DEP BOUNDS     =     4016781.0000       HEAD DEP BOUNDS     =           0.3001
      STREAM LEAKAGE     =   139079728.0000        STREAM LEAKAGE     =          10.0183
        UZF RECHARGE     =           0.0000          UZF RECHARGE     =           0.0000
               GW ET     =     2913523.5000                 GW ET     =           1.7249
     SURFACE LEAKAGE     =           0.0000       SURFACE LEAKAGE     =           0.0000
           AG WELLS      =    39285072.0000             AG WELLS      =          22.4700

               TOTAL OUT =   223006624.0000                 TOTAL OUT =          36.5744

                IN - OUT =       -4000.0000                  IN - OUT =       1.5259E-05

     PERCENT DISCREPANCY =          -0.00         PERCENT DISCREPANCY =           0.00






         TIME SUMMARY AT END OF TIME STEP    5 IN STRESS PERIOD    7
                    SECONDS     MINUTES      HOURS       DAYS        YEARS
                    -----------------------------------------------------------
   TIME STEP LENGTH  87667.      1461.1      24.352      1.0147     2.77799E-03
 STRESS PERIOD TIME 4.38333E+05  7305.6      121.76      5.0733     1.38899E-02
         TOTAL TIME 1.36747E+07 2.27912E+05  3798.5      158.27     0.43333    
1
 
 SOLVING FOR HEAD 
                                                   Max.-Head-Change                         Max.-Flux-Residual
  Residual-Control   Outer-Iter.   Inner-Iter.     Column Row Layer    Maximum-Head-Change  Column Row Layer    Maximum-Flux-Residual          L2-NORM 
          0                 1           2             5    6     1       0.1902981254E-01       5    8    1         0.1035855679E+01      0.2496520838E+01
          0                 2           2             4    7     1      -0.7079495401E-01       5    8    1        -0.3848551188E+01      0.9379030389E+01
          0                 3           2             4    7     1       0.4820198684E-02       5    6    1         0.2693422125E+00      0.6563999211E+00
          0                 4           2             4    7     1      -0.1918003434E-03       5    6    1        -0.1101452401E-01      0.2684407289E-01
          0                 5           1             4    7     1       0.2364981103E-05       5    6    1         0.1394796948E-03      0.3401458135E-03

    ------------------------------------------------
       NWT REQUIRED            5 OUTER ITERATIONS 
       AND A TOTAL OF          9 INNER ITERATIONS.
    ------------------------------------------------

 NO OUTPUT CONTROL FOR STRESS PERIOD    7   TIME STEP    6
 
 SOLVING FOR HEAD 
                                                   Max.-Head-Change                         Max.-Flux-Residual
  Residual-Control   Outer-Iter.   Inner-Iter.     Column Row Layer    Maximum-Head-Change  Column Row Layer    Maximum-Flux-Residual          L2-NORM 
          0                 1           2             5    6     1       0.2012030064E-01       5    8    1         0.1096038326E+01      0.2605555193E+01
          0                 2           2             4    7     1      -0.7084265979E-01       5    8    1        -0.3854569575E+01      0.9390298186E+01
          0                 3           2             4    7     1       0.4823447466E-02       5    6    1         0.2697613065E+00      0.6571931770E+00
          0                 4           2             4    7     1      -0.1919296145E-03       5    6    1        -0.1103187503E-01      0.2687683503E-01
          0                 5           1             4    7     1       0.2366575298E-05       5    6    1         0.1397138601E-03      0.3405454807E-03

    ------------------------------------------------
       NWT REQUIRED            5 OUTER ITERATIONS 
       AND A TOTAL OF          9 INNER ITERATIONS.
    ------------------------------------------------

 NO OUTPUT CONTROL FOR STRESS PERIOD    7   TIME STEP    7
 
 SOLVING FOR HEAD 
                                                   Max.-Head-Change                         Max.-Flux-Residual
  Residual-Control   Outer-Iter.   Inner-Iter.     Column Row Layer    Maximum-Head-Change  Column Row Layer    Maximum-Flux-Residual          L2-NORM 
          0                 1           2             5    6     1       0.2115872060E-01       5    8    1         0.1153203515E+01      0.2718631646E+01
          0                 2           2             4    7     1      -0.7089128575E-01       5    8    1        -0.3860286216E+01      0.9401232636E+01
          0                 3           2             4    7     1       0.4826758889E-02       5    8    1         0.2701605924E+00      0.6579631231E+00
          0                 4           2             4    7     1      -0.1920613780E-03       5    8    1        -0.1104839954E-01      0.2690866860E-01
          0                 5           1             4    7     1       0.2368199513E-05       5    6    1         0.1399363575E-03      0.3409575240E-03

    ------------------------------------------------
       NWT REQUIRED            5 OUTER ITERATIONS 
       AND A TOTAL OF          9 INNER ITERATIONS.
    ------------------------------------------------

 NO OUTPUT CONTROL FOR STRESS PERIOD    7   TIME STEP    8
 
 SOLVING FOR HEAD 
                                                   Max.-Head-Change                         Max.-Flux-Residual
  Residual-Control   Outer-Iter.   Inner-Iter.     Column Row Layer    Maximum-Head-Change  Column Row Layer    Maximum-Flux-Residual          L2-NORM 
          0                 1           2             5    6     1       0.2214846421E-01       5    8    1         0.1207526210E+01      0.2832521489E+01
          0                 2           2             4    7     1      -0.7094073043E-01       5    8    1        -0.3865718606E+01      0.9411842240E+01
          0                 3           2             4    7     1       0.4830126045E-02       5    8    1         0.2705427611E+00      0.6587103294E+00
          0                 4           2             4    7     1      -0.1921953596E-03       5    8    1        -0.1106421849E-01      0.2693959517E-01
          0                 5           1             4    7     1       0.2369851956E-05       5    6    1         0.1401479569E-03      0.3413371010E-03

    ------------------------------------------------
       NWT REQUIRED            5 OUTER ITERATIONS 
       AND A TOTAL OF          9 INNER ITERATIONS.
    ------------------------------------------------

 NO OUTPUT CONTROL FOR STRESS PERIOD    7   TIME STEP    9
 
 SOLVING FOR HEAD 
                                                   Max.-Head-Change                         Max.-Flux-Residual
  Residual-Control   Outer-Iter.   Inner-Iter.     Column Row Layer    Maximum-Head-Change  Column Row Layer    Maximum-Flux-Residual          L2-NORM 
          0                 1           2             5    6     1       0.2309266014E-01       5    8    1         0.1259215080E+01      0.2945338032E+01
          0                 2           2             4    7     1      -0.7099084649E-01       5    8    1        -0.3870887611E+01      0.9422137762E+01
          0                 3           2             4    7     1       0.4833538903E-02       5    8    1         0.2709063646E+00      0.6594352183E+00
          0                 4           2             4    7     1      -0.1923311600E-03       5    8    1        -0.1107926542E-01      0.2696960354E-01
          0                 5           1             4    7     1       0.2371526578E-05       5    6    1         0.1403493930E-03      0.3417257032E-03

    ------------------------------------------------
       NWT REQUIRED            5 OUTER ITERATIONS 
       AND A TOTAL OF          9 INNER ITERATIONS.
    ------------------------------------------------

 OUTPUT CONTROL FOR STRESS PERIOD    7   TIME STEP   10
    PRINT BUDGET
    SAVE BUDGET
 UBDSV1 SAVING "         STORAGE" ON UNIT 102 AT TIME STEP 10, STRESS PERIOD 7
 UBDSV2 SAVING "   CONSTANT HEAD" ON UNIT 102 AT TIME STEP 10, STRESS PERIOD 7
 UBDSV1 SAVING "FLOW RIGHT FACE " ON UNIT 102 AT TIME STEP 10, STRESS PERIOD 7
 UBDSV1 SAVING "FLOW FRONT FACE " ON UNIT 102 AT TIME STEP 10, STRESS PERIOD 7

  HEAD DEP BOUNDS   PERIOD    7   STEP    10
 BOUNDARY      1   LAYER   1   ROW    13   COL     1   RATE   -0.300044    
 BOUNDARY      2   LAYER   1   ROW    14   COL     9   RATE    0.285490    



 STREAM LISTING     PERIOD      7   STEP       10

 LAYER ROW COL. STREAM  RCH.  FLOW INTO     FLOW TO   FLOW OUT OF   OVRLND.     DIRECT     STREAM       STREAM     STREAM     STREAM   STREAMBED  STREAMBED
                SEG.NO.  NO.  STRM. RCH.    AQUIFER    STRM. RCH.    RUNOFF     PRECIP       ET          HEAD       DEPTH      WIDTH   CONDCTNC.   GRADIENT

   1    1    1     1     1    8.3000E+01  4.4019E-01   8.2560E+01  0.000E+00  0.000E+00  0.000E+00  1.09478E+03  1.734E+00  2.066E+01  9.299E-02  1.578E+00
   1    2    2     1     2    8.2560E+01  6.8286E-01   8.1877E+01  0.000E+00  0.000E+00  0.000E+00  1.08979E+03  1.731E+00  2.062E+01  1.443E-01  1.577E+00
   1    3    3     1     3    8.1877E+01  5.8349E-01   8.1294E+01  0.000E+00  0.000E+00  0.000E+00  1.08415E+03  1.729E+00  2.057E+01  1.234E-01  1.576E+00
   1    3    4     1     4    8.1294E+01  5.3822E-01   8.0756E+01  0.000E+00  0.000E+00  0.000E+00  1.07913E+03  1.726E+00  2.052E+01  1.139E-01  1.575E+00
   1    4    5     2     1    7.8756E+01  4.2120E-01   7.8334E+01  0.000E+00  0.000E+00  0.000E+00  1.07433E+03  2.400E+00  1.200E+01  7.800E-02  1.800E+00
   1    5    6     2     2    7.8334E+01  3.2359E-01   7.8011E+01  0.000E+00  0.000E+00  0.000E+00  1.06890E+03  2.393E+00  1.200E+01  6.000E-02  1.798E+00
   1    6    6     2     3    7.8011E+01  3.2323E-01   7.7688E+01  0.000E+00  0.000E+00  0.000E+00  1.06418E+03  2.387E+00  1.200E+01  6.000E-02  1.796E+00
   1    7    6     2     4    7.7688E+01  3.2288E-01   7.7365E+01  0.000E+00  0.000E+00  0.000E+00  1.05946E+03  2.381E+00  1.200E+01  6.000E-02  1.794E+00
   1    8    6     2     5    7.7365E+01  3.2252E-01   7.7042E+01  0.000E+00  0.000E+00  0.000E+00  1.05473E+03  2.375E+00  1.200E+01  6.000E-02  1.792E+00
   1    3    5     3     1    2.0000E+00  2.8252E-01   1.7175E+00  0.000E+00  0.000E+00  0.000E+00  1.07555E+03  1.909E+00  9.636E+00  7.227E-02  1.955E+00
   1    3    6     3     2    1.7175E+00  2.4905E-01   1.4684E+00  0.000E+00  0.000E+00  0.000E+00  1.07264E+03  1.727E+00  8.909E+00  6.682E-02  1.864E+00
   1    3    7     3     3    1.4684E+00  1.9718E-01   1.2712E+00  0.000E+00  0.000E+00  0.000E+00  1.06987E+03  1.555E+00  8.218E+00  5.547E-02  1.777E+00
   1    4    8     3     4    1.2712E+00  2.2567E-01   1.0456E+00  0.000E+00  0.000E+00  0.000E+00  1.06682E+03  1.364E+00  7.455E+00  6.709E-02  1.682E+00
   1    5    8     3     5    1.0456E+00  1.5790E-01   8.8768E-01  0.000E+00  0.000E+00  0.000E+00  1.06362E+03  1.164E+00  6.655E+00  4.991E-02  1.582E+00
   1    6    8     3     6    8.8768E-01  5.5980E-02   8.3170E-01  0.000E+00  0.000E+00  0.000E+00  1.06158E+03  1.036E+00  6.145E+00  1.844E-02  1.518E+00
   1    5   10     4     1    1.0000E+01  9.0919E-02   9.9091E+00  0.000E+00  0.000E+00  0.000E+00  1.07836E+03  6.368E-01  1.000E+01  2.500E-02  1.212E+00
   1    5    9     4     2    9.9091E+00  1.8158E-01   9.7275E+00  0.000E+00  0.000E+00  0.000E+00  1.07154E+03  6.315E-01  1.000E+01  5.000E-02  1.211E+00
   1    6    8     4     3    9.7275E+00  1.2689E-01   9.6006E+00  0.000E+00  0.000E+00  0.000E+00  1.06381E+03  6.256E-01  1.000E+01  3.500E-02  1.209E+00
   1    6    8     5     1    1.0432E+01  2.2686E-01   1.0205E+01  0.000E+00  0.000E+00  0.000E+00  1.05868E+03  6.790E-01  1.542E+01  6.166E-02  1.226E+00
   1    7    7     5     2    1.0205E+01  2.7894E-01   9.9265E+00  0.000E+00  0.000E+00  0.000E+00  1.05417E+03  6.732E-01  1.519E+01  7.594E-02  1.224E+00
   1    8    7     5     3    9.9265E+00  1.9221E-01   9.7343E+00  0.000E+00  0.000E+00  0.000E+00  1.04992E+03  6.676E-01  1.497E+01  5.241E-02  1.223E+00
   1    8    6     5     4    9.7343E+00  1.3577E-01   9.5985E+00  0.000E+00  0.000E+00  0.000E+00  1.04691E+03  6.637E-01  1.482E+01  3.706E-02  1.221E+00
   1    9    6     6     1    8.6641E+01  3.3426E-01   8.6306E+01  0.000E+00  0.000E+00  0.000E+00  1.04530E+03  2.571E+00  1.200E+01  6.000E-02  1.857E+00
   1   10    7     6     2    8.6306E+01  3.3390E-01   8.5973E+01  0.000E+00  0.000E+00  0.000E+00  1.04075E+03  2.565E+00  1.200E+01  6.000E-02  1.855E+00
   1   11    7     6     3    8.5973E+01  3.3354E-01   8.5639E+01  0.000E+00  0.000E+00  0.000E+00  1.03620E+03  2.559E+00  1.200E+01  6.000E-02  1.853E+00
   1   12    7     6     4    8.5639E+01  3.3319E-01   8.5306E+01  0.000E+00  0.000E+00  0.000E+00  1.03164E+03  2.553E+00  1.200E+01  6.000E-02  1.851E+00
   1   13    7     6     5    8.5306E+01  2.9753E-02   8.5276E+01  0.000E+00  0.000E+00  0.000E+00  1.02846E+03  2.550E+00  1.200E+01  2.400E-02  4.132E-01
   1   14    9     7     1    1.5000E+02  1.3319E+00   1.4867E+02  0.000E+00  0.000E+00  0.000E+00  1.03987E+03  2.288E+00  5.529E+01  5.593E-01  7.938E-01
   1   13    8     7     2    1.4867E+02  1.8055E+00   1.4686E+02  0.000E+00  0.000E+00  0.000E+00  1.03478E+03  2.279E+00  5.526E+01  6.148E-01  9.789E-01
   1   13    7     7     3    1.4686E+02  1.3800E+00   1.4548E+02  0.000E+00  0.000E+00  0.000E+00  1.02969E+03  2.271E+00  5.522E+01  5.585E-01  8.237E-01
   1   13    6     8     1    2.3076E+02  1.0581E+00   2.2970E+02  0.000E+00  0.000E+00  0.000E+00  1.02518E+03  3.308E+00  4.796E+01  4.888E-01  7.216E-01
   1   13    5     8     2    2.2970E+02  2.2293E-01   2.2948E+02  0.000E+00  0.000E+00  0.000E+00  1.01893E+03  3.304E+00  4.791E+01  4.882E-01  1.522E-01
   1   13    4     8     3    2.2948E+02 -2.0110E+00   2.3149E+02  0.000E+00  0.000E+00  0.000E+00  1.01268E+03  3.309E+00  4.798E+01  4.890E+00 -1.371E-01
   1   13    3     8     4    2.3149E+02 -3.1903E+00   2.3468E+02  0.000E+00  0.000E+00  0.000E+00  1.00645E+03  3.323E+00  4.819E+01  4.910E+00 -2.166E-01
   1   13    2     8     5    2.3468E+02 -2.5909E+00   2.3727E+02  0.000E+00  0.000E+00  0.000E+00  1.00021E+03  3.339E+00  4.841E+01  4.933E+00 -1.751E-01
   1   13    1     8     6    2.3727E+02 -1.9910E+00   2.3926E+02  0.000E+00  0.000E+00  0.000E+00  9.95226E+02  3.351E+00  4.858E+01  2.971E+00 -2.234E-01



 UBDSV3 SAVING "           GW ET" ON UNIT  61 AT TIME STEP 10, STRESS PERIOD 7
 UBDSV3 SAVING "    UZF RECHARGE" ON UNIT  61 AT TIME STEP 10, STRESS PERIOD 7
 UBDSV3 SAVING " SURFACE LEAKAGE" ON UNIT  61 AT TIME STEP 10, STRESS PERIOD 7
 UBDSV3 SAVING "       HORT+DUNN" ON UNIT  61 AT TIME STEP 10, STRESS PERIOD 7
 UBDSV3 SAVING "  STORAGE CHANGE" ON UNIT  61 AT TIME STEP 10, STRESS PERIOD 7


UNSATURATED ZONE PACKAGE VOLUMETRIC BUDGET FOR  TIME STEP    10 STRESS PERIOD    7
  ------------------------------------------------------------------------------



     CUMULATIVE VOLUMES      L**3       RATES FOR THIS TIME STEP      L**3/T
     ------------------                 ------------------------

           IN:                                      IN:
           ---                                      ---
        INFILTRATION =    61095245.9197          INFILTRATION =          23.3175

          OUT:                                     OUT:
          ----                                     ----
              UZF ET =    60932190.0285                UZF ET =          23.3175
        UZF RECHARGE =       73224.0000          UZF RECHARGE =       0.0000E+00

            IN - OUT =       89831.8912              IN - OUT =       0.0000E+00

          STORAGE:                                 STORAGE:
          --------                                 --------
      STORAGE CHANGE =       89831.1777        STORAGE CHANGE =       0.0000E+00

 PERCENT DISCREPANCY IS DIFFERENCE BETWEEN IN-OUT MINUS CHANGE IN STORAGE
 DIVIDED BY THE AVERAGE OF IN AND OUT TIMES 100

 PERCENT DISCREPANCY =           0.00     PERCENT DISCREPANCY =           0.00






 

            AG WELLS      PERIOD    7   STEP  10
 AG WELL      1   LAYER   1   ROW     6   COL     4   RATE    -3.74500    
 AG WELL      2   LAYER   1   ROW     6   COL     5   RATE    -3.74500    
 AG WELL      3   LAYER   1   ROW     7   COL     4   RATE    -3.74500    
 AG WELL      4   LAYER   1   ROW     7   COL     5   RATE    -3.74500    
 AG WELL      5   LAYER   1   ROW     8   COL     4   RATE    -3.74500    
 AG WELL      6   LAYER   1   ROW     8   COL     5   RATE    -3.74500    
 
 

        GW IRRIGATION     PERIOD    7   STEP  10
 AG WELL      1   ROW     6   COL     4   RATE     3.74500    
 AG WELL      2   ROW     6   COL     5   RATE     3.74500    
 AG WELL      3   ROW     7   COL     4   RATE     3.74500    
 AG WELL      4   ROW     7   COL     5   RATE     3.74500    
 AG WELL      5   ROW     8   COL     4   RATE     3.74500    
 AG WELL      6   ROW     8   COL     5   RATE     3.74500    
 
1
  VOLUMETRIC BUDGET FOR AGRICULTURAL FIELDS AT  END OF TIME STEP   10, STRESS PERIOD   7
  ------------------------------------------------------------------------------

     CUMULATIVE VOLUMES      L**3       RATES FOR THIS TIME STEP      L**3/T
     ------------------                 ------------------------

           IN:                                      IN:
           ---                                      ---
               AG WELLS  =    49134432.0000                 AG WELLS  =          22.4700
      DIVERSION SEGMENTS =           0.0000        DIVERSION SEGMENTS =           0.0000
       IRRIGATION PONDS  =           0.0000         IRRIGATION PONDS  =           0.0000
           GW IRRIGATION =           0.0000             GW IRRIGATION =           0.0000
           SW IRRIGATION =           0.0000             SW IRRIGATION =           0.0000
        SYSTEM LOSSES GW =           0.0000          SYSTEM LOSSES GW =           0.0000
        SYSTEM LOSSES SW =           0.0000          SYSTEM LOSSES SW =           0.0000

                TOTAL IN =    49134432.0000                  TOTAL IN =          22.4700

          OUT:                                     OUT:
          ----                                     ----
               AG WELLS  =           0.0000                 AG WELLS  =           0.0000
      DIVERSION SEGMENTS =           0.0000        DIVERSION SEGMENTS =           0.0000
       IRRIGATION PONDS  =           0.0000         IRRIGATION PONDS  =           0.0000
           GW IRRIGATION =    49134432.0000             GW IRRIGATION =          22.4700
           SW IRRIGATION =           0.0000             SW IRRIGATION =           0.0000
        SYSTEM LOSSES GW =           0.0000          SYSTEM LOSSES GW =           0.0000
        SYSTEM LOSSES SW =           0.0000          SYSTEM LOSSES SW =           0.0000

               TOTAL OUT =    49134432.0000                 TOTAL OUT =          22.4700

                IN - OUT =           0.0000                  IN - OUT =           0.0000

     PERCENT DISCREPANCY =           0.00         PERCENT DISCREPANCY =           0.00



1
  VOLUMETRIC BUDGET FOR ENTIRE MODEL AT END OF TIME STEP   10, STRESS PERIOD   7
  ------------------------------------------------------------------------------

     CUMULATIVE VOLUMES      L**3       RATES FOR THIS TIME STEP      L**3/T
     ------------------                 ------------------------

           IN:                                      IN:
           ---                                      ---
             STORAGE     =    56219948.0000               STORAGE     =          22.1462
       CONSTANT HEAD     =           0.0000         CONSTANT HEAD     =           0.0000
     HEAD DEP BOUNDS     =     4028549.5000       HEAD DEP BOUNDS     =           0.2855
      STREAM LEAKAGE     =   178529264.0000        STREAM LEAKAGE     =          13.5226
        UZF RECHARGE     =       73223.9531          UZF RECHARGE     =           0.0000
               GW ET     =           0.0000                 GW ET     =           0.0000
     SURFACE LEAKAGE     =           0.0000       SURFACE LEAKAGE     =           0.0000
           AG WELLS      =           0.0000             AG WELLS      =           0.0000

                TOTAL IN =   238850976.0000                  TOTAL IN =          35.9543

          OUT:                                     OUT:
          ----                                     ----
             STORAGE     =    38583592.0000               STORAGE     =           1.9533
       CONSTANT HEAD     =           0.0000         CONSTANT HEAD     =           0.0000
     HEAD DEP BOUNDS     =     4148317.7500       HEAD DEP BOUNDS     =           0.3000
      STREAM LEAKAGE     =   143402128.0000        STREAM LEAKAGE     =           9.7833
        UZF RECHARGE     =           0.0000          UZF RECHARGE     =           0.0000
               GW ET     =     3586482.7500                 GW ET     =           1.4476
     SURFACE LEAKAGE     =           0.0000       SURFACE LEAKAGE     =           0.0000
           AG WELLS      =    49134432.0000             AG WELLS      =          22.4700

               TOTAL OUT =   238854944.0000                 TOTAL OUT =          35.9543

                IN - OUT =       -3968.0000                  IN - OUT =       1.5259E-05

     PERCENT DISCREPANCY =          -0.00         PERCENT DISCREPANCY =           0.00






         TIME SUMMARY AT END OF TIME STEP   10 IN STRESS PERIOD    7
                    SECONDS     MINUTES      HOURS       DAYS        YEARS
                    -----------------------------------------------------------
   TIME STEP LENGTH  87667.      1461.1      24.352      1.0147     2.77799E-03
 STRESS PERIOD TIME 8.76667E+05  14611.      243.52      10.147     2.77799E-02
         TOTAL TIME 1.41131E+07 2.35218E+05  3920.3      163.35     0.44722    
1
 
 SOLVING FOR HEAD 
                                                   Max.-Head-Change                         Max.-Flux-Residual
  Residual-Control   Outer-Iter.   Inner-Iter.     Column Row Layer    Maximum-Head-Change  Column Row Layer    Maximum-Flux-Residual          L2-NORM 
          0                 1           2             5    6     1       0.2399360405E-01       5    8    1         0.1308431471E+01      0.3055951318E+01
          0                 2           2             4    7     1      -0.7104157531E-01       5    8    1        -0.3875809366E+01      0.9432128975E+01
          0                 3           2             4    7     1       0.4836993471E-02       5    8    1         0.2712525411E+00      0.6601381799E+00
          0                 4           2             4    7     1      -0.1924686198E-03       5    8    1        -0.1109358774E-01      0.2699866528E-01
          0                 5           1             4    7     1       0.2373221586E-05       5    8    1         0.1405417886E-03      0.3421029380E-03

    ------------------------------------------------
       NWT REQUIRED            5 OUTER ITERATIONS 
       AND A TOTAL OF          9 INNER ITERATIONS.
    ------------------------------------------------

 NO OUTPUT CONTROL FOR STRESS PERIOD    7   TIME STEP   11
 
 SOLVING FOR HEAD 
                                                   Max.-Head-Change                         Max.-Flux-Residual
  Residual-Control   Outer-Iter.   Inner-Iter.     Column Row Layer    Maximum-Head-Change  Column Row Layer    Maximum-Flux-Residual          L2-NORM 
          0                 1           2             5    6     1       0.2485462575E-01       5    8    1         0.1355323878E+01      0.3163777841E+01
          0                 2           2             4    7     1      -0.7109275793E-01       5    8    1        -0.3880498720E+01      0.9441827585E+01
          0                 3           2             4    7     1       0.4840478926E-02       5    8    1         0.2715823381E+00      0.6608199726E+00
          0                 4           2             4    7     1      -0.1926073087E-03       5    8    1        -0.1110722919E-01      0.2702680829E-01
          0                 5           1             4    7     1       0.2374931157E-05       5    8    1         0.1407250106E-03      0.3424695466E-03

    ------------------------------------------------
       NWT REQUIRED            5 OUTER ITERATIONS 
       AND A TOTAL OF          9 INNER ITERATIONS.
    ------------------------------------------------

 NO OUTPUT CONTROL FOR STRESS PERIOD    7   TIME STEP   12
 
 SOLVING FOR HEAD 
                                                   Max.-Head-Change                         Max.-Flux-Residual
  Residual-Control   Outer-Iter.   Inner-Iter.     Column Row Layer    Maximum-Head-Change  Column Row Layer    Maximum-Flux-Residual          L2-NORM 
          0                 1           2             5    6     1       0.2567733020E-01       5    8    1         0.1400061215E+01      0.3268500692E+01
          0                 2           2             4    7     1      -0.7114432533E-01       5    8    1        -0.3884972565E+01      0.9451245175E+01
          0                 3           2             4    7     1       0.4843990568E-02       5    8    1         0.2718969468E+00      0.6614816862E+00
          0                 4           2             4    7     1      -0.1927470393E-03       5    8    1        -0.1112023926E-01      0.2705409683E-01
          0                 5           1             4    7     1       0.2376654169E-05       5    8    1         0.1408995399E-03      0.3428256137E-03

    ------------------------------------------------
       NWT REQUIRED            5 OUTER ITERATIONS 
       AND A TOTAL OF          9 INNER ITERATIONS.
    ------------------------------------------------

 NO OUTPUT CONTROL FOR STRESS PERIOD    7   TIME STEP   13
 
 SOLVING FOR HEAD 
                                                   Max.-Head-Change                         Max.-Flux-Residual
  Residual-Control   Outer-Iter.   Inner-Iter.     Column Row Layer    Maximum-Head-Change  Column Row Layer    Maximum-Flux-Residual          L2-NORM 
          0                 1           2             5    6     1       0.2646467699E-01       5    8    1         0.1442768332E+01      0.3370001722E+01
          0                 2           2             4    7     1      -0.7119618645E-01       5    8    1        -0.3889243384E+01      0.9460391900E+01
          0                 3           2             4    7     1       0.4847522198E-02       5    8    1         0.2721972482E+00      0.6621240064E+00
          0                 4           2             4    7     1      -0.1928875664E-03       5    8    1        -0.1113265474E-01      0.2708055819E-01
          0                 5           1             4    7     1       0.2378387038E-05       5    8    1         0.1410659384E-03      0.3431719022E-03

    ------------------------------------------------
       NWT REQUIRED            5 OUTER ITERATIONS 
       AND A TOTAL OF          9 INNER ITERATIONS.
    ------------------------------------------------

 NO OUTPUT CONTROL FOR STRESS PERIOD    7   TIME STEP   14
 
 SOLVING FOR HEAD 
                                                   Max.-Head-Change                         Max.-Flux-Residual
  Residual-Control   Outer-Iter.   Inner-Iter.     Column Row Layer    Maximum-Head-Change  Column Row Layer    Maximum-Flux-Residual          L2-NORM 
          0                 1           2             5    6     1       0.2721854213E-01       5    8    1         0.1483576132E+01      0.3468260817E+01
          0                 2           2             4    7     1      -0.7124825806E-01       5    8    1        -0.3893324269E+01      0.9469279425E+01
          0                 3           2             4    7     1       0.4851068149E-02       5    8    1         0.2724839800E+00      0.6627479601E+00
          0                 4           2             4    7     1      -0.1930286628E-03       5    8    1        -0.1114448819E-01      0.2710624817E-01
          0                 5           1             4    7     1       0.2380127077E-05       5    6    1         0.1412239667E-03      0.3435054093E-03

    ------------------------------------------------
       NWT REQUIRED            5 OUTER ITERATIONS 
       AND A TOTAL OF          9 INNER ITERATIONS.
    ------------------------------------------------

 OUTPUT CONTROL FOR STRESS PERIOD    7   TIME STEP   15
    PRINT BUDGET
    SAVE BUDGET
 UBDSV1 SAVING "         STORAGE" ON UNIT 102 AT TIME STEP 15, STRESS PERIOD 7
 UBDSV2 SAVING "   CONSTANT HEAD" ON UNIT 102 AT TIME STEP 15, STRESS PERIOD 7
 UBDSV1 SAVING "FLOW RIGHT FACE " ON UNIT 102 AT TIME STEP 15, STRESS PERIOD 7
 UBDSV1 SAVING "FLOW FRONT FACE " ON UNIT 102 AT TIME STEP 15, STRESS PERIOD 7

  HEAD DEP BOUNDS   PERIOD    7   STEP    15
 BOUNDARY      1   LAYER   1   ROW    13   COL     1   RATE   -0.299953    
 BOUNDARY      2   LAYER   1   ROW    14   COL     9   RATE    0.285489    



 STREAM LISTING     PERIOD      7   STEP       15

 LAYER ROW COL. STREAM  RCH.  FLOW INTO     FLOW TO   FLOW OUT OF   OVRLND.     DIRECT     STREAM       STREAM     STREAM     STREAM   STREAMBED  STREAMBED
                SEG.NO.  NO.  STRM. RCH.    AQUIFER    STRM. RCH.    RUNOFF     PRECIP       ET          HEAD       DEPTH      WIDTH   CONDCTNC.   GRADIENT

   1    1    1     1     1    8.3000E+01  4.4019E-01   8.2560E+01  0.000E+00  0.000E+00  0.000E+00  1.09478E+03  1.734E+00  2.066E+01  9.299E-02  1.578E+00
   1    2    2     1     2    8.2560E+01  6.8286E-01   8.1877E+01  0.000E+00  0.000E+00  0.000E+00  1.08979E+03  1.731E+00  2.062E+01  1.443E-01  1.577E+00
   1    3    3     1     3    8.1877E+01  5.8349E-01   8.1294E+01  0.000E+00  0.000E+00  0.000E+00  1.08415E+03  1.729E+00  2.057E+01  1.234E-01  1.576E+00
   1    3    4     1     4    8.1294E+01  5.3822E-01   8.0756E+01  0.000E+00  0.000E+00  0.000E+00  1.07913E+03  1.726E+00  2.052E+01  1.139E-01  1.575E+00
   1    4    5     2     1    7.8756E+01  4.2120E-01   7.8334E+01  0.000E+00  0.000E+00  0.000E+00  1.07433E+03  2.400E+00  1.200E+01  7.800E-02  1.800E+00
   1    5    6     2     2    7.8334E+01  3.2359E-01   7.8011E+01  0.000E+00  0.000E+00  0.000E+00  1.06890E+03  2.393E+00  1.200E+01  6.000E-02  1.798E+00
   1    6    6     2     3    7.8011E+01  3.2323E-01   7.7688E+01  0.000E+00  0.000E+00  0.000E+00  1.06418E+03  2.387E+00  1.200E+01  6.000E-02  1.796E+00
   1    7    6     2     4    7.7688E+01  3.2288E-01   7.7365E+01  0.000E+00  0.000E+00  0.000E+00  1.05946E+03  2.381E+00  1.200E+01  6.000E-02  1.794E+00
   1    8    6     2     5    7.7365E+01  3.2252E-01   7.7042E+01  0.000E+00  0.000E+00  0.000E+00  1.05473E+03  2.375E+00  1.200E+01  6.000E-02  1.792E+00
   1    3    5     3     1    2.0000E+00  2.8252E-01   1.7175E+00  0.000E+00  0.000E+00  0.000E+00  1.07555E+03  1.909E+00  9.636E+00  7.227E-02  1.955E+00
   1    3    6     3     2    1.7175E+00  2.4905E-01   1.4684E+00  0.000E+00  0.000E+00  0.000E+00  1.07264E+03  1.727E+00  8.909E+00  6.682E-02  1.864E+00
   1    3    7     3     3    1.4684E+00  1.9718E-01   1.2712E+00  0.000E+00  0.000E+00  0.000E+00  1.06987E+03  1.555E+00  8.218E+00  5.547E-02  1.777E+00
   1    4    8     3     4    1.2712E+00  2.2567E-01   1.0456E+00  0.000E+00  0.000E+00  0.000E+00  1.06682E+03  1.364E+00  7.455E+00  6.709E-02  1.682E+00
   1    5    8     3     5    1.0456E+00  1.5790E-01   8.8768E-01  0.000E+00  0.000E+00  0.000E+00  1.06362E+03  1.164E+00  6.655E+00  4.991E-02  1.582E+00
   1    6    8     3     6    8.8768E-01  5.5980E-02   8.3170E-01  0.000E+00  0.000E+00  0.000E+00  1.06158E+03  1.036E+00  6.145E+00  1.844E-02  1.518E+00
   1    5   10     4     1    1.0000E+01  9.0919E-02   9.9091E+00  0.000E+00  0.000E+00  0.000E+00  1.07836E+03  6.368E-01  1.000E+01  2.500E-02  1.212E+00
   1    5    9     4     2    9.9091E+00  1.8158E-01   9.7275E+00  0.000E+00  0.000E+00  0.000E+00  1.07154E+03  6.315E-01  1.000E+01  5.000E-02  1.211E+00
   1    6    8     4     3    9.7275E+00  1.2689E-01   9.6006E+00  0.000E+00  0.000E+00  0.000E+00  1.06381E+03  6.256E-01  1.000E+01  3.500E-02  1.209E+00
   1    6    8     5     1    1.0432E+01  2.2686E-01   1.0205E+01  0.000E+00  0.000E+00  0.000E+00  1.05868E+03  6.790E-01  1.542E+01  6.166E-02  1.226E+00
   1    7    7     5     2    1.0205E+01  2.7894E-01   9.9265E+00  0.000E+00  0.000E+00  0.000E+00  1.05417E+03  6.732E-01  1.519E+01  7.594E-02  1.224E+00
   1    8    7     5     3    9.9265E+00  1.9221E-01   9.7343E+00  0.000E+00  0.000E+00  0.000E+00  1.04992E+03  6.676E-01  1.497E+01  5.241E-02  1.223E+00
   1    8    6     5     4    9.7343E+00  1.3577E-01   9.5985E+00  0.000E+00  0.000E+00  0.000E+00  1.04691E+03  6.637E-01  1.482E+01  3.706E-02  1.221E+00
   1    9    6     6     1    8.6641E+01  3.3426E-01   8.6306E+01  0.000E+00  0.000E+00  0.000E+00  1.04530E+03  2.571E+00  1.200E+01  6.000E-02  1.857E+00
   1   10    7     6     2    8.6306E+01  3.3390E-01   8.5973E+01  0.000E+00  0.000E+00  0.000E+00  1.04075E+03  2.565E+00  1.200E+01  6.000E-02  1.855E+00
   1   11    7     6     3    8.5973E+01  3.3354E-01   8.5639E+01  0.000E+00  0.000E+00  0.000E+00  1.03620E+03  2.559E+00  1.200E+01  6.000E-02  1.853E+00
   1   12    7     6     4    8.5639E+01  3.3319E-01   8.5306E+01  0.000E+00  0.000E+00  0.000E+00  1.03164E+03  2.553E+00  1.200E+01  6.000E-02  1.851E+00
   1   13    7     6     5    8.5306E+01  2.9667E-02   8.5276E+01  0.000E+00  0.000E+00  0.000E+00  1.02846E+03  2.550E+00  1.200E+01  2.400E-02  4.120E-01
   1   14    9     7     1    1.5000E+02  1.3319E+00   1.4867E+02  0.000E+00  0.000E+00  0.000E+00  1.03987E+03  2.288E+00  5.529E+01  5.593E-01  7.938E-01
   1   13    8     7     2    1.4867E+02  1.8047E+00   1.4686E+02  0.000E+00  0.000E+00  0.000E+00  1.03478E+03  2.279E+00  5.526E+01  6.148E-01  9.785E-01
   1   13    7     7     3    1.4686E+02  1.3780E+00   1.4549E+02  0.000E+00  0.000E+00  0.000E+00  1.02969E+03  2.271E+00  5.522E+01  5.585E-01  8.225E-01
   1   13    6     8     1    2.3076E+02  1.0561E+00   2.2971E+02  0.000E+00  0.000E+00  0.000E+00  1.02518E+03  3.308E+00  4.796E+01  4.888E-01  7.203E-01
   1   13    5     8     2    2.2971E+02  2.2234E-01   2.2948E+02  0.000E+00  0.000E+00  0.000E+00  1.01893E+03  3.304E+00  4.791E+01  4.883E-01  1.518E-01
   1   13    4     8     3    2.2948E+02 -1.9821E+00   2.3147E+02  0.000E+00  0.000E+00  0.000E+00  1.01268E+03  3.309E+00  4.798E+01  4.890E+00 -1.351E-01
   1   13    3     8     4    2.3147E+02 -3.1580E+00   2.3462E+02  0.000E+00  0.000E+00  0.000E+00  1.00645E+03  3.323E+00  4.818E+01  4.910E+00 -2.144E-01
   1   13    2     8     5    2.3462E+02 -2.5558E+00   2.3718E+02  0.000E+00  0.000E+00  0.000E+00  1.00021E+03  3.338E+00  4.840E+01  4.932E+00 -1.727E-01
   1   13    1     8     6    2.3718E+02 -1.9851E+00   2.3916E+02  0.000E+00  0.000E+00  0.000E+00  9.95225E+02  3.350E+00  4.858E+01  2.970E+00 -2.228E-01



 UBDSV3 SAVING "           GW ET" ON UNIT  61 AT TIME STEP 15, STRESS PERIOD 7
 UBDSV3 SAVING "    UZF RECHARGE" ON UNIT  61 AT TIME STEP 15, STRESS PERIOD 7
 UBDSV3 SAVING " SURFACE LEAKAGE" ON UNIT  61 AT TIME STEP 15, STRESS PERIOD 7
 UBDSV3 SAVING "       HORT+DUNN" ON UNIT  61 AT TIME STEP 15, STRESS PERIOD 7
 UBDSV3 SAVING "  STORAGE CHANGE" ON UNIT  61 AT TIME STEP 15, STRESS PERIOD 7


UNSATURATED ZONE PACKAGE VOLUMETRIC BUDGET FOR  TIME STEP    15 STRESS PERIOD    7
  ------------------------------------------------------------------------------



     CUMULATIVE VOLUMES      L**3       RATES FOR THIS TIME STEP      L**3/T
     ------------------                 ------------------------

           IN:                                      IN:
           ---                                      ---
        INFILTRATION =    71316084.3366          INFILTRATION =          23.3175

          OUT:                                     OUT:
          ----                                     ----
              UZF ET =    71153028.4454                UZF ET =          23.3175
        UZF RECHARGE =       73224.0000          UZF RECHARGE =       0.0000E+00

            IN - OUT =       89831.8912              IN - OUT =       0.0000E+00

          STORAGE:                                 STORAGE:
          --------                                 --------
      STORAGE CHANGE =       89831.1777        STORAGE CHANGE =      -4.1498E-17

 PERCENT DISCREPANCY IS DIFFERENCE BETWEEN IN-OUT MINUS CHANGE IN STORAGE
 DIVIDED BY THE AVERAGE OF IN AND OUT TIMES 100

 PERCENT DISCREPANCY =           0.00     PERCENT DISCREPANCY =           0.00






 

            AG WELLS      PERIOD    7   STEP  15
 AG WELL      1   LAYER   1   ROW     6   COL     4   RATE    -3.74500    
 AG WELL      2   LAYER   1   ROW     6   COL     5   RATE    -3.74500    
 AG WELL      3   LAYER   1   ROW     7   COL     4   RATE    -3.74500    
 AG WELL      4   LAYER   1   ROW     7   COL     5   RATE    -3.74500    
 AG WELL      5   LAYER   1   ROW     8   COL     4   RATE    -3.74500    
 AG WELL      6   LAYER   1   ROW     8   COL     5   RATE    -3.74500    
 
 

        GW IRRIGATION     PERIOD    7   STEP  15
 AG WELL      1   ROW     6   COL     4   RATE     3.74500    
 AG WELL      2   ROW     6   COL     5   RATE     3.74500    
 AG WELL      3   ROW     7   COL     4   RATE     3.74500    
 AG WELL      4   ROW     7   COL     5   RATE     3.74500    
 AG WELL      5   ROW     8   COL     4   RATE     3.74500    
 AG WELL      6   ROW     8   COL     5   RATE     3.74500    
 
1
  VOLUMETRIC BUDGET FOR AGRICULTURAL FIELDS AT  END OF TIME STEP   15, STRESS PERIOD   7
  ------------------------------------------------------------------------------

     CUMULATIVE VOLUMES      L**3       RATES FOR THIS TIME STEP      L**3/T
     ------------------                 ------------------------

           IN:                                      IN:
           ---                                      ---
               AG WELLS  =    58983792.0000                 AG WELLS  =          22.4700
      DIVERSION SEGMENTS =           0.0000        DIVERSION SEGMENTS =           0.0000
       IRRIGATION PONDS  =           0.0000         IRRIGATION PONDS  =           0.0000
           GW IRRIGATION =           0.0000             GW IRRIGATION =           0.0000
           SW IRRIGATION =           0.0000             SW IRRIGATION =           0.0000
        SYSTEM LOSSES GW =           0.0000          SYSTEM LOSSES GW =           0.0000
        SYSTEM LOSSES SW =           0.0000          SYSTEM LOSSES SW =           0.0000

                TOTAL IN =    58983792.0000                  TOTAL IN =          22.4700

          OUT:                                     OUT:
          ----                                     ----
               AG WELLS  =           0.0000                 AG WELLS  =           0.0000
      DIVERSION SEGMENTS =           0.0000        DIVERSION SEGMENTS =           0.0000
       IRRIGATION PONDS  =           0.0000         IRRIGATION PONDS  =           0.0000
           GW IRRIGATION =    58983792.0000             GW IRRIGATION =          22.4700
           SW IRRIGATION =           0.0000             SW IRRIGATION =           0.0000
        SYSTEM LOSSES GW =           0.0000          SYSTEM LOSSES GW =           0.0000
        SYSTEM LOSSES SW =           0.0000          SYSTEM LOSSES SW =           0.0000

               TOTAL OUT =    58983792.0000                 TOTAL OUT =          22.4700

                IN - OUT =           0.0000                  IN - OUT =           0.0000

     PERCENT DISCREPANCY =           0.00         PERCENT DISCREPANCY =           0.00



1
  VOLUMETRIC BUDGET FOR ENTIRE MODEL AT END OF TIME STEP   15, STRESS PERIOD   7
  ------------------------------------------------------------------------------

     CUMULATIVE VOLUMES      L**3       RATES FOR THIS TIME STEP      L**3/T
     ------------------                 ------------------------

           IN:                                      IN:
           ---                                      ---
             STORAGE     =    65851524.0000               STORAGE     =          21.8829
       CONSTANT HEAD     =           0.0000         CONSTANT HEAD     =           0.0000
     HEAD DEP BOUNDS     =     4153689.5000       HEAD DEP BOUNDS     =           0.2855
      STREAM LEAKAGE     =   184455248.0000        STREAM LEAKAGE     =          13.5172
        UZF RECHARGE     =       73223.9531          UZF RECHARGE     =           0.0000
               GW ET     =           0.0000                 GW ET     =           0.0000
     SURFACE LEAKAGE     =           0.0000       SURFACE LEAKAGE     =           0.0000
           AG WELLS      =           0.0000             AG WELLS      =           0.0000

                TOTAL IN =   254533680.0000                  TOTAL IN =          35.6856

          OUT:                                     OUT:
          ----                                     ----
             STORAGE     =    39420760.0000               STORAGE     =           1.8823
       CONSTANT HEAD     =           0.0000         CONSTANT HEAD     =           0.0000
     HEAD DEP BOUNDS     =     4279813.0000       HEAD DEP BOUNDS     =           0.3000
      STREAM LEAKAGE     =   147660800.0000        STREAM LEAKAGE     =           9.6810
        UZF RECHARGE     =           0.0000          UZF RECHARGE     =           0.0000
               GW ET     =     4192485.5000                 GW ET     =           1.3524
     SURFACE LEAKAGE     =           0.0000       SURFACE LEAKAGE     =           0.0000
           AG WELLS      =    58983792.0000             AG WELLS      =          22.4700

               TOTAL OUT =   254537648.0000                 TOTAL OUT =          35.6856

                IN - OUT =       -3968.0000                  IN - OUT =       1.9073E-05

     PERCENT DISCREPANCY =          -0.00         PERCENT DISCREPANCY =           0.00






         TIME SUMMARY AT END OF TIME STEP   15 IN STRESS PERIOD    7
                    SECONDS     MINUTES      HOURS       DAYS        YEARS
                    -----------------------------------------------------------
   TIME STEP LENGTH  87667.      1461.1      24.352      1.0147     2.77799E-03
 STRESS PERIOD TIME 1.31500E+06  21917.      365.28      15.220     4.16698E-02
         TOTAL TIME 1.45514E+07 2.42524E+05  4042.1      168.42     0.46111    
1
 
 SOLVING FOR HEAD 
                                                   Max.-Head-Change                         Max.-Flux-Residual
  Residual-Control   Outer-Iter.   Inner-Iter.     Column Row Layer    Maximum-Head-Change  Column Row Layer    Maximum-Flux-Residual          L2-NORM 
          0                 1           2             5    6     1       0.2794065855E-01       5    8    1         0.1522606214E+01      0.3563325784E+01
          0                 2           2             4    7     1      -0.7130046275E-01       5    8    1        -0.3897227380E+01      0.9477917316E+01
          0                 3           2             4    7     1       0.4854623152E-02       5    8    1         0.2727577591E+00      0.6633537531E+00
          0                 4           2             4    7     1      -0.1931701194E-03       5    8    1        -0.1115574268E-01      0.2713113403E-01
          0                 5           1             4    7     1       0.2381871148E-05       5    6    1         0.1413734153E-03      0.3438273448E-03

    ------------------------------------------------
       NWT REQUIRED            5 OUTER ITERATIONS 
       AND A TOTAL OF          9 INNER ITERATIONS.
    ------------------------------------------------

 NO OUTPUT CONTROL FOR STRESS PERIOD    7   TIME STEP   16
 
 SOLVING FOR HEAD 
                                                   Max.-Head-Change                         Max.-Flux-Residual
  Residual-Control   Outer-Iter.   Inner-Iter.     Column Row Layer    Maximum-Head-Change  Column Row Layer    Maximum-Flux-Residual          L2-NORM 
          0                 1           2             5    6     1       0.2863323147E-01       5    8    1         0.1559939229E+01      0.3655284492E+01
          0                 2           2             4    7     1      -0.7135275561E-01       5    8    1        -0.3900960780E+01      0.9486315661E+01
          0                 3           2             4    7     1       0.4858184147E-02       5    8    1         0.2730196184E+00      0.6639423979E+00
          0                 4           2             4    7     1      -0.1933118146E-03       5    8    1        -0.1116650561E-01      0.2715528360E-01
          0                 5           1             4    7     1       0.2383618355E-05       5    6    1         0.1415131271E-03      0.3441381629E-03

    ------------------------------------------------
       NWT REQUIRED            5 OUTER ITERATIONS 
       AND A TOTAL OF          9 INNER ITERATIONS.
    ------------------------------------------------

 NO OUTPUT CONTROL FOR STRESS PERIOD    7   TIME STEP   17
 
 SOLVING FOR HEAD 
                                                   Max.-Head-Change                         Max.-Flux-Residual
  Residual-Control   Outer-Iter.   Inner-Iter.     Column Row Layer    Maximum-Head-Change  Column Row Layer    Maximum-Flux-Residual          L2-NORM 
          0                 1           2             5    6     1       0.2929741920E-01       5    8    1         0.1595720916E+01      0.3744226634E+01
          0                 2           2             4    7     1      -0.7140501655E-01       5    8    1        -0.3904539045E+01      0.9494482707E+01
          0                 3           2             4    7     1       0.4861742958E-02       5    8    1         0.2732705813E+00      0.6645144870E+00
          0                 4           2             4    7     1      -0.1934534224E-03       5    8    1        -0.1117681920E-01      0.2717872220E-01
          0                 5           1             4    7     1       0.2385364218E-05       5    6    1         0.1416436494E-03      0.3444388666E-03

    ------------------------------------------------
       NWT REQUIRED            5 OUTER ITERATIONS 
       AND A TOTAL OF          9 INNER ITERATIONS.
    ------------------------------------------------

 NO OUTPUT CONTROL FOR STRESS PERIOD    7   TIME STEP   18
 
 SOLVING FOR HEAD 
                                                   Max.-Head-Change                         Max.-Flux-Residual
  Residual-Control   Outer-Iter.   Inner-Iter.     Column Row Layer    Maximum-Head-Change  Column Row Layer    Maximum-Flux-Residual          L2-NORM 
          0                 1           2             5    6     1       0.2993549960E-01       5    8    1         0.1630015626E+01      0.3830289167E+01
          0                 2           2             4    7     1      -0.7145721277E-01       5    8    1        -0.3907968609E+01      0.9502429041E+01
          0                 3           2             4    7     1       0.4865297353E-02       5    6    1         0.2735109913E+00      0.6650708212E+00
          0                 4           2             4    7     1      -0.1935948548E-03       5    8    1        -0.1118665844E-01      0.2720148960E-01
          0                 5           1             4    7     1       0.2387108065E-05       5    8    1         0.1417693620E-03      0.3447327517E-03

    ------------------------------------------------
       NWT REQUIRED            5 OUTER ITERATIONS 
       AND A TOTAL OF          9 INNER ITERATIONS.
    ------------------------------------------------

 NO OUTPUT CONTROL FOR STRESS PERIOD    7   TIME STEP   19
 
 SOLVING FOR HEAD 
                                                   Max.-Head-Change                         Max.-Flux-Residual
  Residual-Control   Outer-Iter.   Inner-Iter.     Column Row Layer    Maximum-Head-Change  Column Row Layer    Maximum-Flux-Residual          L2-NORM 
          0                 1           2             5    6     1       0.3054869254E-01       5    8    1         0.1662914625E+01      0.3913586074E+01
          0                 2           2             4    7     1      -0.7150928908E-01       5    8    1        -0.3911258598E+01      0.9510163071E+01
          0                 3           2             4    7     1       0.4868843573E-02       5    6    1         0.2737431494E+00      0.6656121909E+00
          0                 4           2             4    7     1      -0.1937359628E-03       5    6    1        -0.1119611663E-01      0.2722363225E-01
          0                 5           1             4    7     1       0.2388848328E-05       5    6    1         0.1418892889E-03      0.3450088794E-03

    ------------------------------------------------
       NWT REQUIRED            5 OUTER ITERATIONS 
       AND A TOTAL OF          9 INNER ITERATIONS.
    ------------------------------------------------

 NO OUTPUT CONTROL FOR STRESS PERIOD    7   TIME STEP   20
 
 SOLVING FOR HEAD 
                                                   Max.-Head-Change                         Max.-Flux-Residual
  Residual-Control   Outer-Iter.   Inner-Iter.     Column Row Layer    Maximum-Head-Change  Column Row Layer    Maximum-Flux-Residual          L2-NORM 
          0                 1           2             5    6     1       0.3113813973E-01       5    8    1         0.1694502601E+01      0.3994221365E+01
          0                 2           2             4    7     1      -0.7156119410E-01       5    8    1        -0.3914417483E+01      0.9517691714E+01
          0                 3           2             4    7     1       0.4872378121E-02       5    6    1         0.2739661585E+00      0.6661391820E+00
          0                 4           2             4    7     1      -0.1938766052E-03       5    6    1        -0.1120523769E-01      0.2724518469E-01
          0                 5           1             4    7     1       0.2390582093E-05       5    6    1         0.1420048782E-03      0.3452951943E-03

    ------------------------------------------------
       NWT REQUIRED            5 OUTER ITERATIONS 
       AND A TOTAL OF          9 INNER ITERATIONS.
    ------------------------------------------------

 NO OUTPUT CONTROL FOR STRESS PERIOD    7   TIME STEP   21
 
 SOLVING FOR HEAD 
                                                   Max.-Head-Change                         Max.-Flux-Residual
  Residual-Control   Outer-Iter.   Inner-Iter.     Column Row Layer    Maximum-Head-Change  Column Row Layer    Maximum-Flux-Residual          L2-NORM 
          0                 1           2             5    6     1       0.3170519349E-01       5    8    1         0.1724858177E+01      0.4072328195E+01
          0                 2           2             4    7     1      -0.7161288190E-01       5    8    1        -0.3917453125E+01      0.9525023951E+01
          0                 3           2             4    7     1       0.4875897870E-02       5    6    1         0.2741805489E+00      0.6666524251E+00
          0                 4           2             4    7     1      -0.1940166593E-03       5    6    1        -0.1121400627E-01      0.2726617716E-01
          0                 5           1             4    7     1       0.2392309362E-05       5    6    1         0.1421160032E-03      0.3455469664E-03

    ------------------------------------------------
       NWT REQUIRED            5 OUTER ITERATIONS 
       AND A TOTAL OF          9 INNER ITERATIONS.
    ------------------------------------------------

 NO OUTPUT CONTROL FOR STRESS PERIOD    7   TIME STEP   22
 
 SOLVING FOR HEAD 
                                                   Max.-Head-Change                         Max.-Flux-Residual
  Residual-Control   Outer-Iter.   Inner-Iter.     Column Row Layer    Maximum-Head-Change  Column Row Layer    Maximum-Flux-Residual          L2-NORM 
          0                 1           2             5    6     1       0.3225142651E-01       5    8    1         0.1754054515E+01      0.4148010657E+01
          0                 2           2             4    7     1      -0.7166430942E-01       5    8    1        -0.3920372841E+01      0.9532166994E+01
          0                 3           2             4    7     1       0.4879399888E-02       5    6    1         0.2743869274E+00      0.6671524254E+00
          0                 4           2             4    7     1      -0.1941560082E-03       5    6    1        -0.1122244714E-01      0.2728662780E-01
          0                 5           1             4    7     1       0.2394027446E-05       5    6    1         0.1422229886E-03      0.3458057859E-03

    ------------------------------------------------
       NWT REQUIRED            5 OUTER ITERATIONS 
       AND A TOTAL OF          9 INNER ITERATIONS.
    ------------------------------------------------

 NO OUTPUT CONTROL FOR STRESS PERIOD    7   TIME STEP   23
 
 SOLVING FOR HEAD 
                                                   Max.-Head-Change                         Max.-Flux-Residual
  Residual-Control   Outer-Iter.   Inner-Iter.     Column Row Layer    Maximum-Head-Change  Column Row Layer    Maximum-Flux-Residual          L2-NORM 
          0                 1           2             5    6     1       0.3277770240E-01       5    6    1         0.1782164946E+01      0.4221375905E+01
          0                 2           2             4    7     1      -0.7171543854E-01       5    8    1        -0.3923181822E+01      0.9539127674E+01
          0                 3           2             4    7     1       0.4882881579E-02       5    6    1         0.2745856330E+00      0.6676396589E+00
          0                 4           2             4    7     1      -0.1942945481E-03       5    6    1        -0.1123057421E-01      0.2730655507E-01
          0                 5           1             4    7     1       0.2395736120E-05       5    6    1         0.1423259737E-03      0.3460594527E-03

    ------------------------------------------------
       NWT REQUIRED            5 OUTER ITERATIONS 
       AND A TOTAL OF          9 INNER ITERATIONS.
    ------------------------------------------------

 NO OUTPUT CONTROL FOR STRESS PERIOD    7   TIME STEP   24
 
 SOLVING FOR HEAD 
                                                   Max.-Head-Change                         Max.-Flux-Residual
  Residual-Control   Outer-Iter.   Inner-Iter.     Column Row Layer    Maximum-Head-Change  Column Row Layer    Maximum-Flux-Residual          L2-NORM 
          0                 1           2             5    6     1       0.3328483788E-01       5    6    1         0.1809500101E+01      0.4292526370E+01
          0                 2           2             4    7     1      -0.7176620811E-01       5    6    1        -0.3925913560E+01      0.9545912526E+01
          0                 3           2             4    7     1       0.4886338837E-02       5    6    1         0.2747769790E+00      0.6681148122E+00
          0                 4           2             4    7     1      -0.1944321051E-03       5    6    1        -0.1123840024E-01      0.2732596930E-01
          0                 5           1             4    7     1       0.2397432249E-05       5    6    1         0.1424251643E-03      0.3463044074E-03

    ------------------------------------------------
       NWT REQUIRED            5 OUTER ITERATIONS 
       AND A TOTAL OF          9 INNER ITERATIONS.
    ------------------------------------------------

 NO OUTPUT CONTROL FOR STRESS PERIOD    7   TIME STEP   25
 
 SOLVING FOR HEAD 
                                                   Max.-Head-Change                         Max.-Flux-Residual
  Residual-Control   Outer-Iter.   Inner-Iter.     Column Row Layer    Maximum-Head-Change  Column Row Layer    Maximum-Flux-Residual          L2-NORM 
          0                 1           2             5    6     1       0.3377447457E-01       5    6    1         0.1835875917E+01      0.4361577133E+01
          0                 2           2             4    7     1      -0.7181663993E-01       5    6    1        -0.3928551106E+01      0.9552528743E+01
          0                 3           2             4    7     1       0.4889773678E-02       5    6    1         0.2749616098E+00      0.6685792429E+00
          0                 4           2             4    7     1      -0.1945687809E-03       5    6    1        -0.1124595163E-01      0.2734496478E-01
          0                 5           1             4    7     1       0.2399117400E-05       5    6    1         0.1425208554E-03      0.3465474096E-03

    ------------------------------------------------
       NWT REQUIRED            5 OUTER ITERATIONS 
       AND A TOTAL OF          9 INNER ITERATIONS.
    ------------------------------------------------

 NO OUTPUT CONTROL FOR STRESS PERIOD    7   TIME STEP   26
 
 SOLVING FOR HEAD 
                                                   Max.-Head-Change                         Max.-Flux-Residual
  Residual-Control   Outer-Iter.   Inner-Iter.     Column Row Layer    Maximum-Head-Change  Column Row Layer    Maximum-Flux-Residual          L2-NORM 
          0                 1           2             5    6     1       0.3424696733E-01       5    6    1         0.1861311282E+01      0.4428604872E+01
          0                 2           2             4    7     1      -0.7186667854E-01       5    6    1        -0.3931094608E+01      0.9558982093E+01
          0                 3           2             4    7     1       0.4893189044E-02       5    8    1         0.2762668553E+00      0.6695132309E+00
          0                 4           2             4    7     1      -0.1947046808E-03       5    8    1        -0.1129933634E-01      0.2738314507E-01
          0                 5           1             4    7     1       0.2400792918E-05       5    8    1         0.1431974088E-03      0.3470322665E-03

    ------------------------------------------------
       NWT REQUIRED            5 OUTER ITERATIONS 
       AND A TOTAL OF          9 INNER ITERATIONS.
    ------------------------------------------------

 NO OUTPUT CONTROL FOR STRESS PERIOD    7   TIME STEP   27
 
 SOLVING FOR HEAD 
                                                   Max.-Head-Change                         Max.-Flux-Residual
  Residual-Control   Outer-Iter.   Inner-Iter.     Column Row Layer    Maximum-Head-Change  Column Row Layer    Maximum-Flux-Residual          L2-NORM 
          0                 1           2             5    6     1       0.3470323230E-01       5    6    1         0.1885857906E+01      0.4494148616E+01
          0                 2           2             4    7     1      -0.7191625693E-01       5    6    1        -0.3933549236E+01      0.9564504373E+01
          0                 3           2             5    8     1       0.4896653428E-02       5    8    1         0.2775281651E+00      0.6704158144E+00
          0                 4           2             5    8     1      -0.1948425212E-03       5    8    1        -0.1135092418E-01      0.2742006069E-01
          0                 5           1             5    8     1       0.2402492519E-05       5    8    1         0.1438511802E-03      0.3474973482E-03

    ------------------------------------------------
       NWT REQUIRED            5 OUTER ITERATIONS 
       AND A TOTAL OF          9 INNER ITERATIONS.
    ------------------------------------------------

 NO OUTPUT CONTROL FOR STRESS PERIOD    7   TIME STEP   28
 
 SOLVING FOR HEAD 
                                                   Max.-Head-Change                         Max.-Flux-Residual
  Residual-Control   Outer-Iter.   Inner-Iter.     Column Row Layer    Maximum-Head-Change  Column Row Layer    Maximum-Flux-Residual          L2-NORM 
          0                 1           2             5    6     1       0.3514447463E-01       5    8    1         0.1910015815E+01      0.4558029733E+01
          0                 2           2             4    7     1      -0.7196542293E-01       5    6    1        -0.3935921423E+01      0.9571191242E+01
          0                 3           2             5    8     1       0.4921152054E-02       5    8    1         0.2789745935E+00      0.6713925874E+00
          0                 4           2             5    8     1      -0.1958173485E-03       5    8    1        -0.1141008345E-01      0.2746001076E-01
          0                 5           1             5    8     1       0.2414512607E-05       5    8    1         0.1446009185E-03      0.3480034056E-03

    ------------------------------------------------
       NWT REQUIRED            5 OUTER ITERATIONS 
       AND A TOTAL OF          9 INNER ITERATIONS.
    ------------------------------------------------

 NO OUTPUT CONTROL FOR STRESS PERIOD    7   TIME STEP   29
 
 SOLVING FOR HEAD 
                                                   Max.-Head-Change                         Max.-Flux-Residual
  Residual-Control   Outer-Iter.   Inner-Iter.     Column Row Layer    Maximum-Head-Change  Column Row Layer    Maximum-Flux-Residual          L2-NORM 
          0                 1           2             5    6     1       0.3556960751E-01       5    8    1         0.1933644736E+01      0.4627575669E+01
          0                 2           2             4    7     1      -0.7201409262E-01       5    8    1        -0.3938327823E+01      0.9577581655E+01
          0                 3           2             4    7     1       0.4903220901E-02       5    8    1         0.2756460233E+00      0.6703398585E+00
          0                 4           2             4    7     1      -0.1951038583E-03       5    8    1        -0.1127394400E-01      0.2741694761E-01
          0                 5           1             4    7     1       0.2405714962E-05       5    8    1         0.1428756063E-03      0.3474669887E-03

    ------------------------------------------------
       NWT REQUIRED            5 OUTER ITERATIONS 
       AND A TOTAL OF          9 INNER ITERATIONS.
    ------------------------------------------------

 NO OUTPUT CONTROL FOR STRESS PERIOD    7   TIME STEP   30



 STREAM LISTING     PERIOD      7   STEP       30

 LAYER ROW COL. STREAM  RCH.  FLOW INTO     FLOW TO   FLOW OUT OF   OVRLND.     DIRECT     STREAM       STREAM     STREAM     STREAM   STREAMBED  STREAMBED
                SEG.NO.  NO.  STRM. RCH.    AQUIFER    STRM. RCH.    RUNOFF     PRECIP       ET          HEAD       DEPTH      WIDTH   CONDCTNC.   GRADIENT

   1    1    1     1     1    7.6939E+01  4.2690E-01   7.6512E+01  0.000E+00  0.000E+00  0.000E+00  1.09476E+03  1.708E+00  2.015E+01  9.068E-02  1.569E+00
   1    2    2     1     2    7.6512E+01  6.6216E-01   7.5850E+01  0.000E+00  0.000E+00  0.000E+00  1.08976E+03  1.705E+00  2.010E+01  1.407E-01  1.568E+00
   1    3    3     1     3    7.5850E+01  5.6572E-01   7.5284E+01  0.000E+00  0.000E+00  0.000E+00  1.08412E+03  1.703E+00  2.005E+01  1.203E-01  1.568E+00
   1    3    4     1     4    7.5284E+01  5.2177E-01   7.4762E+01  0.000E+00  0.000E+00  0.000E+00  1.07911E+03  1.700E+00  2.000E+01  1.110E-01  1.567E+00
   1    4    5     2     1    7.2762E+01  4.1250E-01   7.2350E+01  0.000E+00  0.000E+00  0.000E+00  1.07422E+03  2.288E+00  1.200E+01  7.800E-02  1.763E+00
   1    5    6     2     2    7.2350E+01  3.1689E-01   7.2033E+01  0.000E+00  0.000E+00  0.000E+00  1.06879E+03  2.282E+00  1.200E+01  6.000E-02  1.761E+00
   1    6    6     2     3    7.2033E+01  3.1653E-01   7.1717E+01  0.000E+00  0.000E+00  0.000E+00  1.06407E+03  2.276E+00  1.200E+01  6.000E-02  1.759E+00
   1    7    6     2     4    7.1717E+01  3.1617E-01   7.1400E+01  0.000E+00  0.000E+00  0.000E+00  1.05934E+03  2.270E+00  1.200E+01  6.000E-02  1.757E+00
   1    8    6     2     5    7.1400E+01  3.1581E-01   7.1085E+01  0.000E+00  0.000E+00  0.000E+00  1.05462E+03  2.264E+00  1.200E+01  6.000E-02  1.755E+00
   1    3    5     3     1    2.0000E+00  2.8252E-01   1.7175E+00  0.000E+00  0.000E+00  0.000E+00  1.07555E+03  1.909E+00  9.636E+00  7.227E-02  1.955E+00
   1    3    6     3     2    1.7175E+00  2.4905E-01   1.4684E+00  0.000E+00  0.000E+00  0.000E+00  1.07264E+03  1.727E+00  8.909E+00  6.682E-02  1.864E+00
   1    3    7     3     3    1.4684E+00  1.9718E-01   1.2712E+00  0.000E+00  0.000E+00  0.000E+00  1.06987E+03  1.555E+00  8.218E+00  5.547E-02  1.777E+00
   1    4    8     3     4    1.2712E+00  2.2567E-01   1.0456E+00  0.000E+00  0.000E+00  0.000E+00  1.06682E+03  1.364E+00  7.455E+00  6.709E-02  1.682E+00
   1    5    8     3     5    1.0456E+00  1.5790E-01   8.8768E-01  0.000E+00  0.000E+00  0.000E+00  1.06362E+03  1.164E+00  6.655E+00  4.991E-02  1.582E+00
   1    6    8     3     6    8.8768E-01  5.5980E-02   8.3170E-01  0.000E+00  0.000E+00  0.000E+00  1.06158E+03  1.036E+00  6.145E+00  1.844E-02  1.518E+00
   1    5   10     4     1    1.0000E+01  9.0919E-02   9.9091E+00  0.000E+00  0.000E+00  0.000E+00  1.07836E+03  6.368E-01  1.000E+01  2.500E-02  1.212E+00
   1    5    9     4     2    9.9091E+00  1.8158E-01   9.7275E+00  0.000E+00  0.000E+00  0.000E+00  1.07154E+03  6.315E-01  1.000E+01  5.000E-02  1.211E+00
   1    6    8     4     3    9.7275E+00  1.2689E-01   9.6006E+00  0.000E+00  0.000E+00  0.000E+00  1.06381E+03  6.256E-01  1.000E+01  3.500E-02  1.209E+00
   1    6    8     5     1    1.0432E+01  2.2686E-01   1.0205E+01  0.000E+00  0.000E+00  0.000E+00  1.05868E+03  6.790E-01  1.542E+01  6.166E-02  1.226E+00
   1    7    7     5     2    1.0205E+01  2.7894E-01   9.9265E+00  0.000E+00  0.000E+00  0.000E+00  1.05417E+03  6.732E-01  1.519E+01  7.594E-02  1.224E+00
   1    8    7     5     3    9.9265E+00  1.9221E-01   9.7343E+00  0.000E+00  0.000E+00  0.000E+00  1.04992E+03  6.676E-01  1.497E+01  5.241E-02  1.223E+00
   1    8    6     5     4    9.7343E+00  1.3577E-01   9.5985E+00  0.000E+00  0.000E+00  0.000E+00  1.04691E+03  6.637E-01  1.482E+01  3.706E-02  1.221E+00
   1    9    6     6     1    8.0683E+01  3.2780E-01   8.0355E+01  0.000E+00  0.000E+00  0.000E+00  1.04519E+03  2.463E+00  1.200E+01  6.000E-02  1.821E+00
   1   10    7     6     2    8.0355E+01  3.2743E-01   8.0028E+01  0.000E+00  0.000E+00  0.000E+00  1.04064E+03  2.457E+00  1.200E+01  6.000E-02  1.819E+00
   1   11    7     6     3    8.0028E+01  3.2707E-01   7.9701E+01  0.000E+00  0.000E+00  0.000E+00  1.03609E+03  2.451E+00  1.200E+01  6.000E-02  1.817E+00
   1   12    7     6     4    7.9701E+01  3.2671E-01   7.9374E+01  0.000E+00  0.000E+00  0.000E+00  1.03154E+03  2.445E+00  1.200E+01  6.000E-02  1.815E+00
   1   13    7     6     5    7.9374E+01  2.6851E-02   7.9347E+01  0.000E+00  0.000E+00  0.000E+00  1.02835E+03  2.442E+00  1.200E+01  2.400E-02  3.729E-01
   1   14    9     7     1    1.5000E+02  1.3318E+00   1.4867E+02  0.000E+00  0.000E+00  0.000E+00  1.03987E+03  2.288E+00  5.529E+01  5.593E-01  7.937E-01
   1   13    8     7     2    1.4867E+02  1.8024E+00   1.4687E+02  0.000E+00  0.000E+00  0.000E+00  1.03478E+03  2.279E+00  5.526E+01  6.148E-01  9.773E-01
   1   13    7     7     3    1.4687E+02  1.3727E+00   1.4549E+02  0.000E+00  0.000E+00  0.000E+00  1.02969E+03  2.271E+00  5.522E+01  5.585E-01  8.193E-01
   1   13    6     8     1    2.2484E+02  1.0256E+00   2.2381E+02  0.000E+00  0.000E+00  0.000E+00  1.02515E+03  3.276E+00  4.750E+01  4.840E-01  7.063E-01
   1   13    5     8     2    2.2381E+02  2.0293E-01   2.2361E+02  0.000E+00  0.000E+00  0.000E+00  1.01890E+03  3.272E+00  4.745E+01  4.835E-01  1.399E-01
   1   13    4     8     3    2.2361E+02 -2.0940E+00   2.2571E+02  0.000E+00  0.000E+00  0.000E+00  1.01265E+03  3.278E+00  4.752E+01  4.843E+00 -1.441E-01
   1   13    3     8     4    2.2571E+02 -3.2525E+00   2.2896E+02  0.000E+00  0.000E+00  0.000E+00  1.00642E+03  3.292E+00  4.774E+01  4.864E+00 -2.229E-01
   1   13    2     8     5    2.2896E+02 -2.6238E+00   2.3158E+02  0.000E+00  0.000E+00  0.000E+00  1.00018E+03  3.308E+00  4.797E+01  4.888E+00 -1.789E-01
   1   13    1     8     6    2.3158E+02 -2.0372E+00   2.3362E+02  0.000E+00  0.000E+00  0.000E+00  9.95196E+02  3.321E+00  4.815E+01  2.944E+00 -2.307E-01





UNSATURATED ZONE PACKAGE VOLUMETRIC BUDGET FOR  TIME STEP    30 STRESS PERIOD    7
  ------------------------------------------------------------------------------



     CUMULATIVE VOLUMES      L**3       RATES FOR THIS TIME STEP      L**3/T
     ------------------                 ------------------------

           IN:                                      IN:
           ---                                      ---
        INFILTRATION =   101978599.5873          INFILTRATION =          23.3175

          OUT:                                     OUT:
          ----                                     ----
              UZF ET =   101815543.6961                UZF ET =          23.3175
        UZF RECHARGE =       73224.0000          UZF RECHARGE =       0.0000E+00

            IN - OUT =       89831.8912              IN - OUT =       0.0000E+00

          STORAGE:                                 STORAGE:
          --------                                 --------
      STORAGE CHANGE =       89831.1777        STORAGE CHANGE =       1.5562E-16

 PERCENT DISCREPANCY IS DIFFERENCE BETWEEN IN-OUT MINUS CHANGE IN STORAGE
 DIVIDED BY THE AVERAGE OF IN AND OUT TIMES 100

 PERCENT DISCREPANCY =           0.00     PERCENT DISCREPANCY =           0.00






1
  VOLUMETRIC BUDGET FOR AGRICULTURAL FIELDS AT  END OF TIME STEP   30, STRESS PERIOD   7
  ------------------------------------------------------------------------------

     CUMULATIVE VOLUMES      L**3       RATES FOR THIS TIME STEP      L**3/T
     ------------------                 ------------------------

           IN:                                      IN:
           ---                                      ---
               AG WELLS  =    88531872.0000                 AG WELLS  =          22.4700
      DIVERSION SEGMENTS =           0.0000        DIVERSION SEGMENTS =           0.0000
       IRRIGATION PONDS  =           0.0000         IRRIGATION PONDS  =           0.0000
           GW IRRIGATION =           0.0000             GW IRRIGATION =           0.0000
           SW IRRIGATION =           0.0000             SW IRRIGATION =           0.0000
        SYSTEM LOSSES GW =           0.0000          SYSTEM LOSSES GW =           0.0000
        SYSTEM LOSSES SW =           0.0000          SYSTEM LOSSES SW =           0.0000

                TOTAL IN =    88531872.0000                  TOTAL IN =          22.4700

          OUT:                                     OUT:
          ----                                     ----
               AG WELLS  =           0.0000                 AG WELLS  =           0.0000
      DIVERSION SEGMENTS =           0.0000        DIVERSION SEGMENTS =           0.0000
       IRRIGATION PONDS  =           0.0000         IRRIGATION PONDS  =           0.0000
           GW IRRIGATION =    88531872.0000             GW IRRIGATION =          22.4700
           SW IRRIGATION =           0.0000             SW IRRIGATION =           0.0000
        SYSTEM LOSSES GW =           0.0000          SYSTEM LOSSES GW =           0.0000
        SYSTEM LOSSES SW =           0.0000          SYSTEM LOSSES SW =           0.0000

               TOTAL OUT =    88531872.0000                 TOTAL OUT =          22.4700

                IN - OUT =           0.0000                  IN - OUT =           0.0000

     PERCENT DISCREPANCY =           0.00         PERCENT DISCREPANCY =           0.00



1
  VOLUMETRIC BUDGET FOR ENTIRE MODEL AT END OF TIME STEP   30, STRESS PERIOD   7
  ------------------------------------------------------------------------------

     CUMULATIVE VOLUMES      L**3       RATES FOR THIS TIME STEP      L**3/T
     ------------------                 ------------------------

           IN:                                      IN:
           ---                                      ---
             STORAGE     =    94425816.0000               STORAGE     =          22.0170
       CONSTANT HEAD     =           0.0000         CONSTANT HEAD     =           0.0000
     HEAD DEP BOUNDS     =     4529104.5000       HEAD DEP BOUNDS     =           0.2855
      STREAM LEAKAGE     =   202204512.0000        STREAM LEAKAGE     =          13.3273
        UZF RECHARGE     =       73223.9531          UZF RECHARGE     =           0.0000
               GW ET     =           0.0000                 GW ET     =           0.0000
     SURFACE LEAKAGE     =           0.0000       SURFACE LEAKAGE     =           0.0000
           AG WELLS      =           0.0000             AG WELLS      =           0.0000

                TOTAL IN =   301232640.0000                  TOTAL IN =          35.6297

          OUT:                                     OUT:
          ----                                     ----
             STORAGE     =    41762064.0000               STORAGE     =           1.5739
       CONSTANT HEAD     =           0.0000         CONSTANT HEAD     =           0.0000
     HEAD DEP BOUNDS     =     4674106.0000       HEAD DEP BOUNDS     =           0.2997
      STREAM LEAKAGE     =   160347632.0000        STREAM LEAKAGE     =          10.0076
        UZF RECHARGE     =           0.0000          UZF RECHARGE     =           0.0000
               GW ET     =     5920986.5000                 GW ET     =           1.2785
     SURFACE LEAKAGE     =           0.0000       SURFACE LEAKAGE     =           0.0000
           AG WELLS      =    88531872.0000             AG WELLS      =          22.4700

               TOTAL OUT =   301236672.0000                 TOTAL OUT =          35.6297

                IN - OUT =       -4032.0000                  IN - OUT =       1.5259E-05

     PERCENT DISCREPANCY =          -0.00         PERCENT DISCREPANCY =           0.00






         TIME SUMMARY AT END OF TIME STEP   30 IN STRESS PERIOD    7
                    SECONDS     MINUTES      HOURS       DAYS        YEARS
                    -----------------------------------------------------------
   TIME STEP LENGTH  87667.      1461.1      24.352      1.0147     2.77799E-03
 STRESS PERIOD TIME 2.63000E+06  43833.      730.56      30.440     8.33397E-02
         TOTAL TIME 1.58664E+07 2.64440E+05  4407.3      183.64     0.50278    
1
1
                            STRESS PERIOD NO.    8, LENGTH =   2630000.    
                            -----------------------------------------------

                              NUMBER OF TIME STEPS =    30

                               MULTIPLIER FOR DELT =     1.000

                            INITIAL TIME STEP SIZE =   87666.66    

 REUSING NON-PARAMETER GHB CELLS FROM LAST STRESS PERIOD

      2 GHB CELLS

 REUSING STREAM SEGMENT DATA FROM LAST STRESS PERIOD



            AREAL INFILTRATION RATE
 READING ON UNIT   19 WITH FORMAT: (FREE)              

            1           2           3           4           5           6           7           8           9          10
 ........................................................................................................................
   1   1.0000E-10  2.0000E-10   0.000       0.000       0.000       0.000       0.000       0.000       0.000       0.000    
   2   2.0000E-10  1.0000E-10  2.0000E-10   0.000       0.000      8.0000E-10  8.0000E-10  5.0000E-10   0.000       0.000    
   3    0.000      5.0000E-10  1.0000E-10  1.0000E-10  8.0000E-10  8.0000E-10  5.0000E-10  5.0000E-10   0.000       0.000    
   4   8.0000E-10  5.0000E-10  1.0000E-10  1.0000E-10  1.0000E-10  1.0000E-10  1.0000E-10  1.0000E-10  2.0000E-10   0.000    
   5   8.0000E-10  5.0000E-10  1.0000E-10  1.0000E-10  1.0000E-10  1.0000E-10  1.0000E-10  1.0000E-10  1.0000E-10  1.0000E-10
   6   8.0000E-10  5.0000E-10  5.0000E-10  2.0000E-10  2.0000E-10  1.0000E-10  1.0000E-10  1.0000E-10  1.0000E-10  5.0000E-10
   7   8.0000E-10  5.0000E-10  5.0000E-10  2.0000E-10  2.0000E-10  1.0000E-10  1.0000E-10  2.0000E-10  2.0000E-10   0.000    
   8    0.000      5.0000E-10  5.0000E-10  2.0000E-10  2.0000E-10  1.0000E-10  1.0000E-10  2.0000E-10  5.0000E-10   0.000    
   9    0.000      5.0000E-10  5.0000E-10  2.0000E-10  2.0000E-10  1.0000E-10  1.0000E-10  2.0000E-10  5.0000E-10   0.000    
  10    0.000      5.0000E-10  5.0000E-10  2.0000E-10  2.0000E-10  1.0000E-10  1.0000E-10  2.0000E-10  5.0000E-10  8.0000E-10
  11    0.000      1.0000E-10  1.0000E-10  1.0000E-10  1.0000E-10  1.0000E-10  1.0000E-10  2.0000E-10  5.0000E-10   0.000    
  12   1.0000E-10  1.0000E-10  1.0000E-10  1.0000E-10  1.0000E-10  1.0000E-10  1.0000E-10  1.0000E-10  2.0000E-10   0.000    
  13   1.0000E-10  1.0000E-10  2.0000E-10  2.0000E-10  2.0000E-10  2.0000E-10  2.0000E-10  1.0000E-10  1.0000E-10   0.000    
  14    0.000      2.0000E-10  5.0000E-10  5.0000E-10  5.0000E-10  5.0000E-10  5.0000E-10  2.0000E-10  1.0000E-10   0.000    
  15    0.000       0.000      8.0000E-10  8.0000E-10  8.0000E-10  8.0000E-10   0.000       0.000       0.000       0.000    

                  ET RATE =  4.000000E-07

 USING ET EXTINCTION DEPTH FROM PREVIOUS STRESS PERIOD. CURRENT PERIOD IS:       8

 USING EXTINCTION WATER CONTENT FROM PREVIOUS STRESS PERIOD. CURRENT PERIOD IS:       8

 USING AIR ENTRY PRESSURE FROM PREVIOUS STRESS PERIOD. CURRENT PERIOD IS:       8

 USING ROOT PRESSURE HEAD FROM PREVIOUS STRESS PERIOD. CURRENT PERIOD IS:       8

 USING ROOT ACTIVITY FROM PREVIOUS STRESS PERIOD. CURRENT PERIOD IS:       8

 PROCESSING AG STRESS PERIOD DATA

 READING AG STRESS PERIOD DATA

 READING IRRIGATION WELL

 NO IRRPOND OR REUSING IRRPOND DATA FROM LAST STRESS PERIOD

 END PROCESSING AG STRESS PERIOD DATA OPTIONS
 
 SOLVING FOR HEAD 
                                                   Max.-Head-Change                         Max.-Flux-Residual
  Residual-Control   Outer-Iter.   Inner-Iter.     Column Row Layer    Maximum-Head-Change  Column Row Layer    Maximum-Flux-Residual          L2-NORM 
          0                 1           2             4    7     1      -0.1679659120E+00       4    7    1        -0.8783331205E+01      0.2062279715E+02
          0                 2           2             4    7     1       0.1633822387E-01       4    7    1         0.8783145798E+00      0.2062024024E+01
          0                 3           2             4    7     1      -0.1112575206E-02       4    7    1        -0.6148222256E-01      0.1443215994E+00
          0                 4           1             4    7     1       0.4427039574E-04       4    7    1         0.2514625588E-02      0.5901498725E-02

    ------------------------------------------------
       NWT REQUIRED            4 OUTER ITERATIONS 
       AND A TOTAL OF          7 INNER ITERATIONS.
    ------------------------------------------------

 OUTPUT CONTROL FOR STRESS PERIOD    8   TIME STEP    1
    PRINT BUDGET
    SAVE BUDGET
 UBDSV1 SAVING "         STORAGE" ON UNIT 102 AT TIME STEP 1, STRESS PERIOD 8
 UBDSV2 SAVING "   CONSTANT HEAD" ON UNIT 102 AT TIME STEP 1, STRESS PERIOD 8
 UBDSV1 SAVING "FLOW RIGHT FACE " ON UNIT 102 AT TIME STEP 1, STRESS PERIOD 8
 UBDSV1 SAVING "FLOW FRONT FACE " ON UNIT 102 AT TIME STEP 1, STRESS PERIOD 8

  HEAD DEP BOUNDS   PERIOD    8   STEP     1
 BOUNDARY      1   LAYER   1   ROW    13   COL     1   RATE   -0.299663    
 BOUNDARY      2   LAYER   1   ROW    14   COL     9   RATE    0.285485    



 STREAM LISTING     PERIOD      8   STEP        1

 LAYER ROW COL. STREAM  RCH.  FLOW INTO     FLOW TO   FLOW OUT OF   OVRLND.     DIRECT     STREAM       STREAM     STREAM     STREAM   STREAMBED  STREAMBED
                SEG.NO.  NO.  STRM. RCH.    AQUIFER    STRM. RCH.    RUNOFF     PRECIP       ET          HEAD       DEPTH      WIDTH   CONDCTNC.   GRADIENT

   1    1    1     1     1    7.5000E+01  4.2232E-01   7.4578E+01  0.000E+00  0.000E+00  0.000E+00  1.09475E+03  1.698E+00  1.998E+01  8.990E-02  1.566E+00
   1    2    2     1     2    7.4578E+01  6.5422E-01   7.3924E+01  0.000E+00  0.000E+00  0.000E+00  1.08975E+03  1.692E+00  1.992E+01  1.394E-01  1.564E+00
   1    3    3     1     3    7.3924E+01  5.5813E-01   7.3366E+01  0.000E+00  0.000E+00  0.000E+00  1.08410E+03  1.685E+00  1.985E+01  1.191E-01  1.562E+00
   1    3    4     1     4    7.3366E+01  5.1412E-01   7.2852E+01  0.000E+00  0.000E+00  0.000E+00  1.07909E+03  1.679E+00  1.980E+01  1.099E-01  1.560E+00
   1    4    5     2     1    7.0852E+01  4.0967E-01   7.0442E+01  0.000E+00  0.000E+00  0.000E+00  1.07419E+03  2.252E+00  1.200E+01  7.800E-02  1.751E+00
   1    5    6     2     2    7.0442E+01  3.1471E-01   7.0127E+01  0.000E+00  0.000E+00  0.000E+00  1.06875E+03  2.245E+00  1.200E+01  6.000E-02  1.748E+00
   1    6    6     2     3    7.0127E+01  3.1435E-01   6.9813E+01  0.000E+00  0.000E+00  0.000E+00  1.06403E+03  2.239E+00  1.200E+01  6.000E-02  1.746E+00
   1    7    6     2     4    6.9813E+01  3.1399E-01   6.9499E+01  0.000E+00  0.000E+00  0.000E+00  1.05931E+03  2.233E+00  1.200E+01  6.000E-02  1.744E+00
   1    8    6     2     5    6.9499E+01  3.1363E-01   6.9185E+01  0.000E+00  0.000E+00  0.000E+00  1.05459E+03  2.227E+00  1.200E+01  6.000E-02  1.742E+00
   1    3    5     3     1    2.0000E+00  2.8252E-01   1.7175E+00  0.000E+00  0.000E+00  0.000E+00  1.07555E+03  1.909E+00  9.636E+00  7.227E-02  1.955E+00
   1    3    6     3     2    1.7175E+00  2.4905E-01   1.4684E+00  0.000E+00  0.000E+00  0.000E+00  1.07264E+03  1.727E+00  8.909E+00  6.682E-02  1.864E+00
   1    3    7     3     3    1.4684E+00  1.9718E-01   1.2712E+00  0.000E+00  0.000E+00  0.000E+00  1.06987E+03  1.555E+00  8.218E+00  5.547E-02  1.777E+00
   1    4    8     3     4    1.2712E+00  2.2567E-01   1.0456E+00  0.000E+00  0.000E+00  0.000E+00  1.06682E+03  1.364E+00  7.455E+00  6.709E-02  1.682E+00
   1    5    8     3     5    1.0456E+00  1.5790E-01   8.8768E-01  0.000E+00  0.000E+00  0.000E+00  1.06362E+03  1.164E+00  6.655E+00  4.991E-02  1.582E+00
   1    6    8     3     6    8.8768E-01  5.5980E-02   8.3170E-01  0.000E+00  0.000E+00  0.000E+00  1.06158E+03  1.036E+00  6.145E+00  1.844E-02  1.518E+00
   1    5   10     4     1    1.0000E+01  9.0919E-02   9.9091E+00  0.000E+00  0.000E+00  0.000E+00  1.07836E+03  6.368E-01  1.000E+01  2.500E-02  1.212E+00
   1    5    9     4     2    9.9091E+00  1.8158E-01   9.7275E+00  0.000E+00  0.000E+00  0.000E+00  1.07154E+03  6.315E-01  1.000E+01  5.000E-02  1.211E+00
   1    6    8     4     3    9.7275E+00  1.2689E-01   9.6006E+00  0.000E+00  0.000E+00  0.000E+00  1.06381E+03  6.256E-01  1.000E+01  3.500E-02  1.209E+00
   1    6    8     5     1    1.0432E+01  2.2686E-01   1.0205E+01  0.000E+00  0.000E+00  0.000E+00  1.05868E+03  6.790E-01  1.542E+01  6.166E-02  1.226E+00
   1    7    7     5     2    1.0205E+01  2.7894E-01   9.9265E+00  0.000E+00  0.000E+00  0.000E+00  1.05417E+03  6.732E-01  1.519E+01  7.594E-02  1.224E+00
   1    8    7     5     3    9.9265E+00  1.9221E-01   9.7343E+00  0.000E+00  0.000E+00  0.000E+00  1.04992E+03  6.676E-01  1.497E+01  5.241E-02  1.223E+00
   1    8    6     5     4    9.7343E+00  1.3577E-01   9.5985E+00  0.000E+00  0.000E+00  0.000E+00  1.04691E+03  6.637E-01  1.482E+01  3.706E-02  1.221E+00
   1    9    6     6     1    7.8784E+01  3.2569E-01   7.8458E+01  0.000E+00  0.000E+00  0.000E+00  1.04516E+03  2.428E+00  1.200E+01  6.000E-02  1.809E+00
   1   10    7     6     2    7.8458E+01  3.2533E-01   7.8133E+01  0.000E+00  0.000E+00  0.000E+00  1.04060E+03  2.422E+00  1.200E+01  6.000E-02  1.807E+00
   1   11    7     6     3    7.8133E+01  3.2497E-01   7.7808E+01  0.000E+00  0.000E+00  0.000E+00  1.03605E+03  2.416E+00  1.200E+01  6.000E-02  1.805E+00
   1   12    7     6     4    7.7808E+01  3.2461E-01   7.7483E+01  0.000E+00  0.000E+00  0.000E+00  1.03150E+03  2.410E+00  1.200E+01  6.000E-02  1.803E+00
   1   13    7     6     5    7.7483E+01  2.5997E-02   7.7457E+01  0.000E+00  0.000E+00  0.000E+00  1.02832E+03  2.407E+00  1.200E+01  2.400E-02  3.611E-01
   1   14    9     7     1    1.5000E+02  1.3318E+00   1.4867E+02  0.000E+00  0.000E+00  0.000E+00  1.03987E+03  2.288E+00  5.529E+01  5.593E-01  7.937E-01
   1   13    8     7     2    1.4867E+02  1.8022E+00   1.4687E+02  0.000E+00  0.000E+00  0.000E+00  1.03478E+03  2.279E+00  5.526E+01  6.148E-01  9.772E-01
   1   13    7     7     3    1.4687E+02  1.3725E+00   1.4549E+02  0.000E+00  0.000E+00  0.000E+00  1.02969E+03  2.271E+00  5.522E+01  5.585E-01  8.192E-01
   1   13    6     8     1    2.2295E+02  1.0174E+00   2.2193E+02  0.000E+00  0.000E+00  0.000E+00  1.02514E+03  3.265E+00  4.735E+01  4.825E-01  7.028E-01
   1   13    5     8     2    2.2193E+02  1.9745E-01   2.2174E+02  0.000E+00  0.000E+00  0.000E+00  1.01889E+03  3.262E+00  4.730E+01  4.820E-01  1.366E-01
   1   13    4     8     3    2.2174E+02 -2.0673E+00   2.2380E+02  0.000E+00  0.000E+00  0.000E+00  1.01264E+03  3.267E+00  4.737E+01  4.828E+00 -1.427E-01
   1   13    3     8     4    2.2380E+02 -3.2221E+00   2.2703E+02  0.000E+00  0.000E+00  0.000E+00  1.00641E+03  3.282E+00  4.758E+01  4.849E+00 -2.215E-01
   1   13    2     8     5    2.2703E+02 -2.6521E+00   2.2968E+02  0.000E+00  0.000E+00  0.000E+00  1.00017E+03  3.298E+00  4.782E+01  4.873E+00 -1.814E-01
   1   13    1     8     6    2.2968E+02 -2.0559E+00   2.3173E+02  0.000E+00  0.000E+00  0.000E+00  9.95185E+02  3.310E+00  4.800E+01  2.935E+00 -2.335E-01



 UBDSV3 SAVING "           GW ET" ON UNIT  61 AT TIME STEP 1, STRESS PERIOD 8
 UBDSV3 SAVING "    UZF RECHARGE" ON UNIT  61 AT TIME STEP 1, STRESS PERIOD 8
 UBDSV3 SAVING " SURFACE LEAKAGE" ON UNIT  61 AT TIME STEP 1, STRESS PERIOD 8
 UBDSV3 SAVING "       HORT+DUNN" ON UNIT  61 AT TIME STEP 1, STRESS PERIOD 8
 UBDSV3 SAVING "  STORAGE CHANGE" ON UNIT  61 AT TIME STEP 1, STRESS PERIOD 8


UNSATURATED ZONE PACKAGE VOLUMETRIC BUDGET FOR  TIME STEP     1 STRESS PERIOD    8
  ------------------------------------------------------------------------------



     CUMULATIVE VOLUMES      L**3       RATES FOR THIS TIME STEP      L**3/T
     ------------------                 ------------------------

           IN:                                      IN:
           ---                                      ---
        INFILTRATION =   107312897.0832          INFILTRATION =          60.8475

          OUT:                                     OUT:
          ----                                     ----
              UZF ET =   107147210.9420                UZF ET =          60.8175
        UZF RECHARGE =       73224.0000          UZF RECHARGE =       0.0000E+00

            IN - OUT =       92462.1412              IN - OUT =       3.0001E-02

          STORAGE:                                 STORAGE:
          --------                                 --------
      STORAGE CHANGE =       92461.2242        STORAGE CHANGE =       3.0001E-02

 PERCENT DISCREPANCY IS DIFFERENCE BETWEEN IN-OUT MINUS CHANGE IN STORAGE
 DIVIDED BY THE AVERAGE OF IN AND OUT TIMES 100

 PERCENT DISCREPANCY =           0.00     PERCENT DISCREPANCY =           0.00






 

            AG WELLS      PERIOD    8   STEP   1
 AG WELL      1   LAYER   1   ROW     6   COL     4   RATE    -10.0000    
 AG WELL      2   LAYER   1   ROW     6   COL     5   RATE    -10.0000    
 AG WELL      3   LAYER   1   ROW     7   COL     4   RATE    -10.0000    
 AG WELL      4   LAYER   1   ROW     7   COL     5   RATE    -10.0000    
 AG WELL      5   LAYER   1   ROW     8   COL     4   RATE    -10.0000    
 AG WELL      6   LAYER   1   ROW     8   COL     5   RATE    -10.0000    
 
 

        GW IRRIGATION     PERIOD    8   STEP   1
 AG WELL      1   ROW     6   COL     4   RATE     10.0000    
 AG WELL      2   ROW     6   COL     5   RATE     10.0000    
 AG WELL      3   ROW     7   COL     4   RATE     10.0000    
 AG WELL      4   ROW     7   COL     5   RATE     10.0000    
 AG WELL      5   ROW     8   COL     4   RATE     10.0000    
 AG WELL      6   ROW     8   COL     5   RATE     10.0000    
 
1
  VOLUMETRIC BUDGET FOR AGRICULTURAL FIELDS AT  END OF TIME STEP    1, STRESS PERIOD   8
  ------------------------------------------------------------------------------

     CUMULATIVE VOLUMES      L**3       RATES FOR THIS TIME STEP      L**3/T
     ------------------                 ------------------------

           IN:                                      IN:
           ---                                      ---
               AG WELLS  =    93791872.0000                 AG WELLS  =          60.0000
      DIVERSION SEGMENTS =           0.0000        DIVERSION SEGMENTS =           0.0000
       IRRIGATION PONDS  =           0.0000         IRRIGATION PONDS  =           0.0000
           GW IRRIGATION =           0.0000             GW IRRIGATION =           0.0000
           SW IRRIGATION =           0.0000             SW IRRIGATION =           0.0000
        SYSTEM LOSSES GW =           0.0000          SYSTEM LOSSES GW =           0.0000
        SYSTEM LOSSES SW =           0.0000          SYSTEM LOSSES SW =           0.0000

                TOTAL IN =    93791872.0000                  TOTAL IN =          60.0000

          OUT:                                     OUT:
          ----                                     ----
               AG WELLS  =           0.0000                 AG WELLS  =           0.0000
      DIVERSION SEGMENTS =           0.0000        DIVERSION SEGMENTS =           0.0000
       IRRIGATION PONDS  =           0.0000         IRRIGATION PONDS  =           0.0000
           GW IRRIGATION =    93791872.0000             GW IRRIGATION =          60.0000
           SW IRRIGATION =           0.0000             SW IRRIGATION =           0.0000
        SYSTEM LOSSES GW =           0.0000          SYSTEM LOSSES GW =           0.0000
        SYSTEM LOSSES SW =           0.0000          SYSTEM LOSSES SW =           0.0000

               TOTAL OUT =    93791872.0000                 TOTAL OUT =          60.0000

                IN - OUT =           0.0000                  IN - OUT =           0.0000

     PERCENT DISCREPANCY =           0.00         PERCENT DISCREPANCY =           0.00



1
  VOLUMETRIC BUDGET FOR ENTIRE MODEL AT END OF TIME STEP    1, STRESS PERIOD   8
  ------------------------------------------------------------------------------

     CUMULATIVE VOLUMES      L**3       RATES FOR THIS TIME STEP      L**3/T
     ------------------                 ------------------------

           IN:                                      IN:
           ---                                      ---
             STORAGE     =    99780592.0000               STORAGE     =          61.0811
       CONSTANT HEAD     =           0.0000         CONSTANT HEAD     =           0.0000
     HEAD DEP BOUNDS     =     4554132.0000       HEAD DEP BOUNDS     =           0.2855
      STREAM LEAKAGE     =   203367360.0000        STREAM LEAKAGE     =          13.2645
        UZF RECHARGE     =       73223.9531          UZF RECHARGE     =           0.0000
               GW ET     =           0.0000                 GW ET     =           0.0000
     SURFACE LEAKAGE     =           0.0000       SURFACE LEAKAGE     =           0.0000
           AG WELLS      =           0.0000             AG WELLS      =           0.0000

                TOTAL IN =   307775296.0000                  TOTAL IN =          74.6310

          OUT:                                     OUT:
          ----                                     ----
             STORAGE     =    41893948.0000               STORAGE     =           1.5044
       CONSTANT HEAD     =           0.0000         CONSTANT HEAD     =           0.0000
     HEAD DEP BOUNDS     =     4700376.5000       HEAD DEP BOUNDS     =           0.2997
      STREAM LEAKAGE     =   161224064.0000        STREAM LEAKAGE     =           9.9973
        UZF RECHARGE     =           0.0000          UZF RECHARGE     =           0.0000
               GW ET     =     6169071.0000                 GW ET     =           2.8299
     SURFACE LEAKAGE     =           0.0000       SURFACE LEAKAGE     =           0.0000
           AG WELLS      =    93791872.0000             AG WELLS      =          60.0000

               TOTAL OUT =   307779328.0000                 TOTAL OUT =          74.6313

                IN - OUT =       -4032.0000                  IN - OUT =      -2.1362E-04

     PERCENT DISCREPANCY =          -0.00         PERCENT DISCREPANCY =          -0.00






         TIME SUMMARY AT END OF TIME STEP    1 IN STRESS PERIOD    8
                    SECONDS     MINUTES      HOURS       DAYS        YEARS
                    -----------------------------------------------------------
   TIME STEP LENGTH  87667.      1461.1      24.352      1.0147     2.77799E-03
 STRESS PERIOD TIME  87667.      1461.1      24.352      1.0147     2.77799E-03
         TOTAL TIME 1.59541E+07 2.65901E+05  4431.7      184.65     0.50555    
1
 
 SOLVING FOR HEAD 
                                                   Max.-Head-Change                         Max.-Flux-Residual
  Residual-Control   Outer-Iter.   Inner-Iter.     Column Row Layer    Maximum-Head-Change  Column Row Layer    Maximum-Flux-Residual          L2-NORM 
          0                 1           2             5    8     1       0.3970710103E-01       5    8    1         0.2165265601E+01      0.5250579257E+01
          0                 2           2             4    7     1      -0.1886127134E+00       5    8    1        -0.1021150378E+02      0.2492615415E+02
          0                 3           2             4    7     1       0.1284364226E-01       5    8    1         0.7147258276E+00      0.1744685848E+01
          0                 4           2             4    7     1      -0.5110614194E-03       5    8    1        -0.2922554130E-01      0.7134880977E-01
          0                 5           1             4    7     1       0.6301607531E-05       5    6    1         0.3699593908E-03      0.9043703387E-03

    ------------------------------------------------
       NWT REQUIRED            5 OUTER ITERATIONS 
       AND A TOTAL OF          9 INNER ITERATIONS.
    ------------------------------------------------

 NO OUTPUT CONTROL FOR STRESS PERIOD    8   TIME STEP    2
 
 SOLVING FOR HEAD 
                                                   Max.-Head-Change                         Max.-Flux-Residual
  Residual-Control   Outer-Iter.   Inner-Iter.     Column Row Layer    Maximum-Head-Change  Column Row Layer    Maximum-Flux-Residual          L2-NORM 
          0                 1           2             5    8     1       0.4329100403E-01       5    8    1         0.2362359579E+01      0.5591162331E+01
          0                 2           2             4    7     1      -0.1887267459E+00       5    8    1        -0.1023121288E+02      0.2495963384E+02
          0                 3           2             4    7     1       0.1285102917E-01       5    8    1         0.7160924641E+00      0.1746989937E+01
          0                 4           2             4    7     1      -0.5113553421E-03       5    8    1        -0.2928221288E-01      0.7144355772E-01
          0                 5           1             4    7     1       0.6305231883E-05       5    6    1         0.3706902221E-03      0.9054182503E-03

    ------------------------------------------------
       NWT REQUIRED            5 OUTER ITERATIONS 
       AND A TOTAL OF          9 INNER ITERATIONS.
    ------------------------------------------------

 NO OUTPUT CONTROL FOR STRESS PERIOD    8   TIME STEP    3
 
 SOLVING FOR HEAD 
                                                   Max.-Head-Change                         Max.-Flux-Residual
  Residual-Control   Outer-Iter.   Inner-Iter.     Column Row Layer    Maximum-Head-Change  Column Row Layer    Maximum-Flux-Residual          L2-NORM 
          0                 1           2             5    8     1       0.4668057933E-01       5    8    1         0.2548588577E+01      0.5957958641E+01
          0                 2           2             4    7     1      -0.1888445674E+00       5    8    1        -0.1024983547E+02      0.2499208676E+02
          0                 3           2             4    7     1       0.1285905419E-01       5    8    1         0.7174034581E+00      0.1749273785E+01
          0                 4           2             4    7     1      -0.5116746563E-03       5    8    1        -0.2933655287E-01      0.7153762906E-01
          0                 5           1             4    7     1       0.6309169316E-05       5    8    1         0.3714222571E-03      0.9065035727E-03

    ------------------------------------------------
       NWT REQUIRED            5 OUTER ITERATIONS 
       AND A TOTAL OF          9 INNER ITERATIONS.
    ------------------------------------------------

 NO OUTPUT CONTROL FOR STRESS PERIOD    8   TIME STEP    4
 
 SOLVING FOR HEAD 
                                                   Max.-Head-Change                         Max.-Flux-Residual
  Residual-Control   Outer-Iter.   Inner-Iter.     Column Row Layer    Maximum-Head-Change  Column Row Layer    Maximum-Flux-Residual          L2-NORM 
          0                 1           2             5    8     1       0.4988979952E-01       5    8    1         0.2724740802E+01      0.6327576301E+01
          0                 2           2             4    7     1      -0.1889657565E+00       5    8    1        -0.1026745037E+02      0.2502352239E+02
          0                 3           2             4    7     1       0.1286730836E-01       5    8    1         0.7186433899E+00      0.1751486600E+01
          0                 4           2             4    7     1      -0.5120030897E-03       5    8    1        -0.2938793514E-01      0.7162892217E-01
          0                 5           1             4    7     1       0.6313218988E-05       5    8    1         0.3721188732E-03      0.9075946305E-03

    ------------------------------------------------
       NWT REQUIRED            5 OUTER ITERATIONS 
       AND A TOTAL OF          9 INNER ITERATIONS.
    ------------------------------------------------

 OUTPUT CONTROL FOR STRESS PERIOD    8   TIME STEP    5
    PRINT BUDGET
    SAVE BUDGET
 UBDSV1 SAVING "         STORAGE" ON UNIT 102 AT TIME STEP 5, STRESS PERIOD 8
 UBDSV2 SAVING "   CONSTANT HEAD" ON UNIT 102 AT TIME STEP 5, STRESS PERIOD 8
 UBDSV1 SAVING "FLOW RIGHT FACE " ON UNIT 102 AT TIME STEP 5, STRESS PERIOD 8
 UBDSV1 SAVING "FLOW FRONT FACE " ON UNIT 102 AT TIME STEP 5, STRESS PERIOD 8

  HEAD DEP BOUNDS   PERIOD    8   STEP     5
 BOUNDARY      1   LAYER   1   ROW    13   COL     1   RATE   -0.299426    
 BOUNDARY      2   LAYER   1   ROW    14   COL     9   RATE    0.285483    



 STREAM LISTING     PERIOD      8   STEP        5

 LAYER ROW COL. STREAM  RCH.  FLOW INTO     FLOW TO   FLOW OUT OF   OVRLND.     DIRECT     STREAM       STREAM     STREAM     STREAM   STREAMBED  STREAMBED
                SEG.NO.  NO.  STRM. RCH.    AQUIFER    STRM. RCH.    RUNOFF     PRECIP       ET          HEAD       DEPTH      WIDTH   CONDCTNC.   GRADIENT

   1    1    1     1     1    7.5000E+01  4.2232E-01   7.4578E+01  0.000E+00  0.000E+00  0.000E+00  1.09475E+03  1.698E+00  1.998E+01  8.990E-02  1.566E+00
   1    2    2     1     2    7.4578E+01  6.5422E-01   7.3924E+01  0.000E+00  0.000E+00  0.000E+00  1.08975E+03  1.692E+00  1.992E+01  1.394E-01  1.564E+00
   1    3    3     1     3    7.3924E+01  5.5813E-01   7.3366E+01  0.000E+00  0.000E+00  0.000E+00  1.08410E+03  1.685E+00  1.985E+01  1.191E-01  1.562E+00
   1    3    4     1     4    7.3366E+01  5.1412E-01   7.2852E+01  0.000E+00  0.000E+00  0.000E+00  1.07909E+03  1.679E+00  1.980E+01  1.099E-01  1.560E+00
   1    4    5     2     1    7.0852E+01  4.0967E-01   7.0442E+01  0.000E+00  0.000E+00  0.000E+00  1.07419E+03  2.252E+00  1.200E+01  7.800E-02  1.751E+00
   1    5    6     2     2    7.0442E+01  3.1471E-01   7.0127E+01  0.000E+00  0.000E+00  0.000E+00  1.06875E+03  2.245E+00  1.200E+01  6.000E-02  1.748E+00
   1    6    6     2     3    7.0127E+01  3.1435E-01   6.9813E+01  0.000E+00  0.000E+00  0.000E+00  1.06403E+03  2.239E+00  1.200E+01  6.000E-02  1.746E+00
   1    7    6     2     4    6.9813E+01  3.1399E-01   6.9499E+01  0.000E+00  0.000E+00  0.000E+00  1.05931E+03  2.233E+00  1.200E+01  6.000E-02  1.744E+00
   1    8    6     2     5    6.9499E+01  3.1363E-01   6.9185E+01  0.000E+00  0.000E+00  0.000E+00  1.05459E+03  2.227E+00  1.200E+01  6.000E-02  1.742E+00
   1    3    5     3     1    2.0000E+00  2.8252E-01   1.7175E+00  0.000E+00  0.000E+00  0.000E+00  1.07555E+03  1.909E+00  9.636E+00  7.227E-02  1.955E+00
   1    3    6     3     2    1.7175E+00  2.4905E-01   1.4684E+00  0.000E+00  0.000E+00  0.000E+00  1.07264E+03  1.727E+00  8.909E+00  6.682E-02  1.864E+00
   1    3    7     3     3    1.4684E+00  1.9718E-01   1.2712E+00  0.000E+00  0.000E+00  0.000E+00  1.06987E+03  1.555E+00  8.218E+00  5.547E-02  1.777E+00
   1    4    8     3     4    1.2712E+00  2.2567E-01   1.0456E+00  0.000E+00  0.000E+00  0.000E+00  1.06682E+03  1.364E+00  7.455E+00  6.709E-02  1.682E+00
   1    5    8     3     5    1.0456E+00  1.5790E-01   8.8768E-01  0.000E+00  0.000E+00  0.000E+00  1.06362E+03  1.164E+00  6.655E+00  4.991E-02  1.582E+00
   1    6    8     3     6    8.8768E-01  5.5980E-02   8.3170E-01  0.000E+00  0.000E+00  0.000E+00  1.06158E+03  1.036E+00  6.145E+00  1.844E-02  1.518E+00
   1    5   10     4     1    1.0000E+01  9.0919E-02   9.9091E+00  0.000E+00  0.000E+00  0.000E+00  1.07836E+03  6.368E-01  1.000E+01  2.500E-02  1.212E+00
   1    5    9     4     2    9.9091E+00  1.8158E-01   9.7275E+00  0.000E+00  0.000E+00  0.000E+00  1.07154E+03  6.315E-01  1.000E+01  5.000E-02  1.211E+00
   1    6    8     4     3    9.7275E+00  1.2689E-01   9.6006E+00  0.000E+00  0.000E+00  0.000E+00  1.06381E+03  6.256E-01  1.000E+01  3.500E-02  1.209E+00
   1    6    8     5     1    1.0432E+01  2.2686E-01   1.0205E+01  0.000E+00  0.000E+00  0.000E+00  1.05868E+03  6.790E-01  1.542E+01  6.166E-02  1.226E+00
   1    7    7     5     2    1.0205E+01  2.7894E-01   9.9265E+00  0.000E+00  0.000E+00  0.000E+00  1.05417E+03  6.732E-01  1.519E+01  7.594E-02  1.224E+00
   1    8    7     5     3    9.9265E+00  1.9221E-01   9.7343E+00  0.000E+00  0.000E+00  0.000E+00  1.04992E+03  6.676E-01  1.497E+01  5.241E-02  1.223E+00
   1    8    6     5     4    9.7343E+00  1.3577E-01   9.5985E+00  0.000E+00  0.000E+00  0.000E+00  1.04691E+03  6.637E-01  1.482E+01  3.706E-02  1.221E+00
   1    9    6     6     1    7.8784E+01  3.2569E-01   7.8458E+01  0.000E+00  0.000E+00  0.000E+00  1.04516E+03  2.428E+00  1.200E+01  6.000E-02  1.809E+00
   1   10    7     6     2    7.8458E+01  3.2533E-01   7.8133E+01  0.000E+00  0.000E+00  0.000E+00  1.04060E+03  2.422E+00  1.200E+01  6.000E-02  1.807E+00
   1   11    7     6     3    7.8133E+01  3.2497E-01   7.7808E+01  0.000E+00  0.000E+00  0.000E+00  1.03605E+03  2.416E+00  1.200E+01  6.000E-02  1.805E+00
   1   12    7     6     4    7.7808E+01  3.2461E-01   7.7483E+01  0.000E+00  0.000E+00  0.000E+00  1.03150E+03  2.410E+00  1.200E+01  6.000E-02  1.803E+00
   1   13    7     6     5    7.7483E+01  2.5951E-02   7.7457E+01  0.000E+00  0.000E+00  0.000E+00  1.02832E+03  2.407E+00  1.200E+01  2.400E-02  3.604E-01
   1   14    9     7     1    1.5000E+02  1.3318E+00   1.4867E+02  0.000E+00  0.000E+00  0.000E+00  1.03987E+03  2.288E+00  5.529E+01  5.593E-01  7.937E-01
   1   13    8     7     2    1.4867E+02  1.8017E+00   1.4687E+02  0.000E+00  0.000E+00  0.000E+00  1.03478E+03  2.279E+00  5.526E+01  6.148E-01  9.769E-01
   1   13    7     7     3    1.4687E+02  1.3714E+00   1.4550E+02  0.000E+00  0.000E+00  0.000E+00  1.02969E+03  2.271E+00  5.522E+01  5.585E-01  8.185E-01
   1   13    6     8     1    2.2295E+02  1.0172E+00   2.2194E+02  0.000E+00  0.000E+00  0.000E+00  1.02514E+03  3.265E+00  4.735E+01  4.825E-01  7.028E-01
   1   13    5     8     2    2.2194E+02  1.9833E-01   2.2174E+02  0.000E+00  0.000E+00  0.000E+00  1.01889E+03  3.262E+00  4.730E+01  4.820E-01  1.372E-01
   1   13    4     8     3    2.2174E+02 -1.9497E+00   2.2369E+02  0.000E+00  0.000E+00  0.000E+00  1.01264E+03  3.267E+00  4.737E+01  4.827E+00 -1.346E-01
   1   13    3     8     4    2.2369E+02 -3.1042E+00   2.2679E+02  0.000E+00  0.000E+00  0.000E+00  1.00641E+03  3.281E+00  4.757E+01  4.848E+00 -2.135E-01
   1   13    2     8     5    2.2679E+02 -2.6097E+00   2.2940E+02  0.000E+00  0.000E+00  0.000E+00  1.00017E+03  3.296E+00  4.780E+01  4.871E+00 -1.786E-01
   1   13    1     8     6    2.2940E+02 -2.0412E+00   2.3144E+02  0.000E+00  0.000E+00  0.000E+00  9.95184E+02  3.309E+00  4.798E+01  2.933E+00 -2.319E-01



 UBDSV3 SAVING "           GW ET" ON UNIT  61 AT TIME STEP 5, STRESS PERIOD 8
 UBDSV3 SAVING "    UZF RECHARGE" ON UNIT  61 AT TIME STEP 5, STRESS PERIOD 8
 UBDSV3 SAVING " SURFACE LEAKAGE" ON UNIT  61 AT TIME STEP 5, STRESS PERIOD 8
 UBDSV3 SAVING "       HORT+DUNN" ON UNIT  61 AT TIME STEP 5, STRESS PERIOD 8
 UBDSV3 SAVING "  STORAGE CHANGE" ON UNIT  61 AT TIME STEP 5, STRESS PERIOD 8


UNSATURATED ZONE PACKAGE VOLUMETRIC BUDGET FOR  TIME STEP     5 STRESS PERIOD    8
  ------------------------------------------------------------------------------



     CUMULATIVE VOLUMES      L**3       RATES FOR THIS TIME STEP      L**3/T
     ------------------                 ------------------------

           IN:                                      IN:
           ---                                      ---
        INFILTRATION =   128639555.1917          INFILTRATION =          60.8175

          OUT:                                     OUT:
          ----                                     ----
              UZF ET =   128473879.9255                UZF ET =          60.8175
        UZF RECHARGE =       73224.0000          UZF RECHARGE =       0.0000E+00

            IN - OUT =       92451.2662              IN - OUT =       0.0000E+00

          STORAGE:                                 STORAGE:
          --------                                 --------
      STORAGE CHANGE =       92450.0117        STORAGE CHANGE =      -4.1498E-17

 PERCENT DISCREPANCY IS DIFFERENCE BETWEEN IN-OUT MINUS CHANGE IN STORAGE
 DIVIDED BY THE AVERAGE OF IN AND OUT TIMES 100

 PERCENT DISCREPANCY =           0.00     PERCENT DISCREPANCY =           0.00






 

            AG WELLS      PERIOD    8   STEP   5
 AG WELL      1   LAYER   1   ROW     6   COL     4   RATE    -9.99500    
 AG WELL      2   LAYER   1   ROW     6   COL     5   RATE    -9.99500    
 AG WELL      3   LAYER   1   ROW     7   COL     4   RATE    -9.99500    
 AG WELL      4   LAYER   1   ROW     7   COL     5   RATE    -9.99500    
 AG WELL      5   LAYER   1   ROW     8   COL     4   RATE    -9.99500    
 AG WELL      6   LAYER   1   ROW     8   COL     5   RATE    -9.99500    
 
 

        GW IRRIGATION     PERIOD    8   STEP   5
 AG WELL      1   ROW     6   COL     4   RATE     9.99500    
 AG WELL      2   ROW     6   COL     5   RATE     9.99500    
 AG WELL      3   ROW     7   COL     4   RATE     9.99500    
 AG WELL      4   ROW     7   COL     5   RATE     9.99500    
 AG WELL      5   ROW     8   COL     4   RATE     9.99500    
 AG WELL      6   ROW     8   COL     5   RATE     9.99500    
 
1
  VOLUMETRIC BUDGET FOR AGRICULTURAL FIELDS AT  END OF TIME STEP    5, STRESS PERIOD   8
  ------------------------------------------------------------------------------

     CUMULATIVE VOLUMES      L**3       RATES FOR THIS TIME STEP      L**3/T
     ------------------                 ------------------------

           IN:                                      IN:
           ---                                      ---
               AG WELLS  =   114821336.0000                 AG WELLS  =          59.9700
      DIVERSION SEGMENTS =           0.0000        DIVERSION SEGMENTS =           0.0000
       IRRIGATION PONDS  =           0.0000         IRRIGATION PONDS  =           0.0000
           GW IRRIGATION =           0.0000             GW IRRIGATION =           0.0000
           SW IRRIGATION =           0.0000             SW IRRIGATION =           0.0000
        SYSTEM LOSSES GW =           0.0000          SYSTEM LOSSES GW =           0.0000
        SYSTEM LOSSES SW =           0.0000          SYSTEM LOSSES SW =           0.0000

                TOTAL IN =   114821336.0000                  TOTAL IN =          59.9700

          OUT:                                     OUT:
          ----                                     ----
               AG WELLS  =           0.0000                 AG WELLS  =           0.0000
      DIVERSION SEGMENTS =           0.0000        DIVERSION SEGMENTS =           0.0000
       IRRIGATION PONDS  =           0.0000         IRRIGATION PONDS  =           0.0000
           GW IRRIGATION =   114821336.0000             GW IRRIGATION =          59.9700
           SW IRRIGATION =           0.0000             SW IRRIGATION =           0.0000
        SYSTEM LOSSES GW =           0.0000          SYSTEM LOSSES GW =           0.0000
        SYSTEM LOSSES SW =           0.0000          SYSTEM LOSSES SW =           0.0000

               TOTAL OUT =   114821336.0000                 TOTAL OUT =          59.9700

                IN - OUT =           0.0000                  IN - OUT =           0.0000

     PERCENT DISCREPANCY =           0.00         PERCENT DISCREPANCY =           0.00



1
  VOLUMETRIC BUDGET FOR ENTIRE MODEL AT END OF TIME STEP    5, STRESS PERIOD   8
  ------------------------------------------------------------------------------

     CUMULATIVE VOLUMES      L**3       RATES FOR THIS TIME STEP      L**3/T
     ------------------                 ------------------------

           IN:                                      IN:
           ---                                      ---
             STORAGE     =   120846976.0000               STORAGE     =          59.7122
       CONSTANT HEAD     =           0.0000         CONSTANT HEAD     =           0.0000
     HEAD DEP BOUNDS     =     4654242.0000       HEAD DEP BOUNDS     =           0.2855
      STREAM LEAKAGE     =   208018560.0000        STREAM LEAKAGE     =          13.2635
        UZF RECHARGE     =       73223.9531          UZF RECHARGE     =           0.0000
               GW ET     =           0.0000                 GW ET     =           0.0000
     SURFACE LEAKAGE     =           0.0000       SURFACE LEAKAGE     =           0.0000
           AG WELLS      =           0.0000             AG WELLS      =           0.0000

                TOTAL IN =   333592992.0000                  TOTAL IN =          73.2612

          OUT:                                     OUT:
          ----                                     ----
             STORAGE     =    42409644.0000               STORAGE     =           1.4509
       CONSTANT HEAD     =           0.0000         CONSTANT HEAD     =           0.0000
     HEAD DEP BOUNDS     =     4805405.0000       HEAD DEP BOUNDS     =           0.2994
      STREAM LEAKAGE     =   164656240.0000        STREAM LEAKAGE     =           9.7047
        UZF RECHARGE     =           0.0000          UZF RECHARGE     =           0.0000
               GW ET     =     6904369.5000                 GW ET     =           1.8361
     SURFACE LEAKAGE     =           0.0000       SURFACE LEAKAGE     =           0.0000
           AG WELLS      =   114821336.0000             AG WELLS      =          59.9700

               TOTAL OUT =   333596992.0000                 TOTAL OUT =          73.2612

                IN - OUT =       -4000.0000                  IN - OUT =       3.8147E-05

     PERCENT DISCREPANCY =          -0.00         PERCENT DISCREPANCY =           0.00






         TIME SUMMARY AT END OF TIME STEP    5 IN STRESS PERIOD    8
                    SECONDS     MINUTES      HOURS       DAYS        YEARS
                    -----------------------------------------------------------
   TIME STEP LENGTH  87667.      1461.1      24.352      1.0147     2.77799E-03
 STRESS PERIOD TIME 4.38333E+05  7305.6      121.76      5.0733     1.38899E-02
         TOTAL TIME 1.63048E+07 2.71746E+05  4529.1      188.71     0.51667    
1
 
 SOLVING FOR HEAD 
                                                   Max.-Head-Change                         Max.-Flux-Residual
  Residual-Control   Outer-Iter.   Inner-Iter.     Column Row Layer    Maximum-Head-Change  Column Row Layer    Maximum-Flux-Residual          L2-NORM 
          0                 1           2             5    8     1       0.5293080637E-01       5    8    1         0.2891501959E+01      0.6690135920E+01
          0                 2           2             4    7     1      -0.1890899567E+00       5    8    1        -0.1028412616E+02      0.2505396690E+02
          0                 3           2             4    7     1       0.1287576743E-01       5    8    1         0.7198170999E+00      0.1753630190E+01
          0                 4           2             4    7     1      -0.5123396764E-03       5    8    1        -0.2943656161E-01      0.7171748628E-01
          0                 5           1             4    7     1       0.6317369026E-05       5    8    1         0.3727773369E-03      0.9086874023E-03

    ------------------------------------------------
       NWT REQUIRED            5 OUTER ITERATIONS 
       AND A TOTAL OF          9 INNER ITERATIONS.
    ------------------------------------------------

 NO OUTPUT CONTROL FOR STRESS PERIOD    8   TIME STEP    6
 
 SOLVING FOR HEAD 
                                                   Max.-Head-Change                         Max.-Flux-Residual
  Residual-Control   Outer-Iter.   Inner-Iter.     Column Row Layer    Maximum-Head-Change  Column Row Layer    Maximum-Flux-Residual          L2-NORM 
          0                 1           2             5    8     1       0.5581519461E-01       5    8    1         0.3049525258E+01      0.7041731556E+01
          0                 2           2             4    7     1      -0.1892167690E+00       5    8    1        -0.1029992816E+02      0.2508345635E+02
          0                 3           2             4    7     1       0.1288440424E-01       5    8    1         0.7209291968E+00      0.1755707113E+01
          0                 4           2             4    7     1      -0.5126833370E-03       5    8    1        -0.2948262433E-01      0.7180341786E-01
          0                 5           1             4    7     1       0.6321606547E-05       5    8    1         0.3734003528E-03      0.9097698501E-03

    ------------------------------------------------
       NWT REQUIRED            5 OUTER ITERATIONS 
       AND A TOTAL OF          9 INNER ITERATIONS.
    ------------------------------------------------

 NO OUTPUT CONTROL FOR STRESS PERIOD    8   TIME STEP    7
 
 SOLVING FOR HEAD 
                                                   Max.-Head-Change                         Max.-Flux-Residual
  Residual-Control   Outer-Iter.   Inner-Iter.     Column Row Layer    Maximum-Head-Change  Column Row Layer    Maximum-Flux-Residual          L2-NORM 
          0                 1           2             5    8     1       0.5855363187E-01       5    8    1         0.3199411879E+01      0.7381018582E+01
          0                 2           2             4    7     1      -0.1893458592E+00       5    8    1        -0.1031491650E+02      0.2511202795E+02
          0                 3           2             4    7     1       0.1289319603E-01       5    8    1         0.7219839230E+00      0.1757719857E+01
          0                 4           2             4    7     1      -0.5130331646E-03       5    8    1        -0.2952630012E-01      0.7188679611E-01
          0                 5           1             4    7     1       0.6325920127E-05       5    8    1         0.3739903523E-03      0.9108470377E-03

    ------------------------------------------------
       NWT REQUIRED            5 OUTER ITERATIONS 
       AND A TOTAL OF          9 INNER ITERATIONS.
    ------------------------------------------------

 NO OUTPUT CONTROL FOR STRESS PERIOD    8   TIME STEP    8
 
 SOLVING FOR HEAD 
                                                   Max.-Head-Change                         Max.-Flux-Residual
  Residual-Control   Outer-Iter.   Inner-Iter.     Column Row Layer    Maximum-Head-Change  Column Row Layer    Maximum-Flux-Residual          L2-NORM 
          0                 1           2             5    8     1       0.6115593788E-01       5    8    1         0.3341714935E+01      0.7707766120E+01
          0                 2           2             4    7     1      -0.1894769148E+00       5    8    1        -0.1032914647E+02      0.2513971844E+02
          0                 3           2             4    7     1       0.1290212152E-01       5    8    1         0.7229851809E+00      0.1759669899E+01
          0                 4           2             4    7     1      -0.5133883131E-03       5    8    1        -0.2956775162E-01      0.7196756417E-01
          0                 5           1             4    7     1       0.6330299347E-05       5    8    1         0.3745496308E-03      0.9119155048E-03

    ------------------------------------------------
       NWT REQUIRED            5 OUTER ITERATIONS 
       AND A TOTAL OF          9 INNER ITERATIONS.
    ------------------------------------------------

 NO OUTPUT CONTROL FOR STRESS PERIOD    8   TIME STEP    9
 
 SOLVING FOR HEAD 
                                                   Max.-Head-Change                         Max.-Flux-Residual
  Residual-Control   Outer-Iter.   Inner-Iter.     Column Row Layer    Maximum-Head-Change  Column Row Layer    Maximum-Flux-Residual          L2-NORM 
          0                 1           2             5    8     1       0.6363116202E-01       5    8    1         0.3476943536E+01      0.8022257500E+01
          0                 2           2             4    7     1      -0.1896096438E+00       5    8    1        -0.1034266901E+02      0.2516656799E+02
          0                 3           2             4    7     1       0.1291116085E-01       5    8    1         0.7239365632E+00      0.1761558001E+01
          0                 4           2             4    7     1      -0.5137479916E-03       5    8    1        -0.2960712858E-01      0.7204554397E-01
          0                 5           1             4    7     1       0.6334734238E-05       5    8    1         0.3750802755E-03      0.9129182017E-03

    ------------------------------------------------
       NWT REQUIRED            5 OUTER ITERATIONS 
       AND A TOTAL OF          9 INNER ITERATIONS.
    ------------------------------------------------

 OUTPUT CONTROL FOR STRESS PERIOD    8   TIME STEP   10
    PRINT BUDGET
    SAVE BUDGET
 UBDSV1 SAVING "         STORAGE" ON UNIT 102 AT TIME STEP 10, STRESS PERIOD 8
 UBDSV2 SAVING "   CONSTANT HEAD" ON UNIT 102 AT TIME STEP 10, STRESS PERIOD 8
 UBDSV1 SAVING "FLOW RIGHT FACE " ON UNIT 102 AT TIME STEP 10, STRESS PERIOD 8
 UBDSV1 SAVING "FLOW FRONT FACE " ON UNIT 102 AT TIME STEP 10, STRESS PERIOD 8

  HEAD DEP BOUNDS   PERIOD    8   STEP    10
 BOUNDARY      1   LAYER   1   ROW    13   COL     1   RATE   -0.299185    
 BOUNDARY      2   LAYER   1   ROW    14   COL     9   RATE    0.285481    



 STREAM LISTING     PERIOD      8   STEP       10

 LAYER ROW COL. STREAM  RCH.  FLOW INTO     FLOW TO   FLOW OUT OF   OVRLND.     DIRECT     STREAM       STREAM     STREAM     STREAM   STREAMBED  STREAMBED
                SEG.NO.  NO.  STRM. RCH.    AQUIFER    STRM. RCH.    RUNOFF     PRECIP       ET          HEAD       DEPTH      WIDTH   CONDCTNC.   GRADIENT

   1    1    1     1     1    7.5000E+01  4.2232E-01   7.4578E+01  0.000E+00  0.000E+00  0.000E+00  1.09475E+03  1.698E+00  1.998E+01  8.990E-02  1.566E+00
   1    2    2     1     2    7.4578E+01  6.5422E-01   7.3924E+01  0.000E+00  0.000E+00  0.000E+00  1.08975E+03  1.692E+00  1.992E+01  1.394E-01  1.564E+00
   1    3    3     1     3    7.3924E+01  5.5813E-01   7.3366E+01  0.000E+00  0.000E+00  0.000E+00  1.08410E+03  1.685E+00  1.985E+01  1.191E-01  1.562E+00
   1    3    4     1     4    7.3366E+01  5.1412E-01   7.2852E+01  0.000E+00  0.000E+00  0.000E+00  1.07909E+03  1.679E+00  1.980E+01  1.099E-01  1.560E+00
   1    4    5     2     1    7.0852E+01  4.0967E-01   7.0442E+01  0.000E+00  0.000E+00  0.000E+00  1.07419E+03  2.252E+00  1.200E+01  7.800E-02  1.751E+00
   1    5    6     2     2    7.0442E+01  3.1471E-01   7.0127E+01  0.000E+00  0.000E+00  0.000E+00  1.06875E+03  2.245E+00  1.200E+01  6.000E-02  1.748E+00
   1    6    6     2     3    7.0127E+01  3.1435E-01   6.9813E+01  0.000E+00  0.000E+00  0.000E+00  1.06403E+03  2.239E+00  1.200E+01  6.000E-02  1.746E+00
   1    7    6     2     4    6.9813E+01  3.1399E-01   6.9499E+01  0.000E+00  0.000E+00  0.000E+00  1.05931E+03  2.233E+00  1.200E+01  6.000E-02  1.744E+00
   1    8    6     2     5    6.9499E+01  3.1363E-01   6.9185E+01  0.000E+00  0.000E+00  0.000E+00  1.05459E+03  2.227E+00  1.200E+01  6.000E-02  1.742E+00
   1    3    5     3     1    2.0000E+00  2.8252E-01   1.7175E+00  0.000E+00  0.000E+00  0.000E+00  1.07555E+03  1.909E+00  9.636E+00  7.227E-02  1.955E+00
   1    3    6     3     2    1.7175E+00  2.4905E-01   1.4684E+00  0.000E+00  0.000E+00  0.000E+00  1.07264E+03  1.727E+00  8.909E+00  6.682E-02  1.864E+00
   1    3    7     3     3    1.4684E+00  1.9718E-01   1.2712E+00  0.000E+00  0.000E+00  0.000E+00  1.06987E+03  1.555E+00  8.218E+00  5.547E-02  1.777E+00
   1    4    8     3     4    1.2712E+00  2.2567E-01   1.0456E+00  0.000E+00  0.000E+00  0.000E+00  1.06682E+03  1.364E+00  7.455E+00  6.709E-02  1.682E+00
   1    5    8     3     5    1.0456E+00  1.5790E-01   8.8768E-01  0.000E+00  0.000E+00  0.000E+00  1.06362E+03  1.164E+00  6.655E+00  4.991E-02  1.582E+00
   1    6    8     3     6    8.8768E-01  5.5980E-02   8.3170E-01  0.000E+00  0.000E+00  0.000E+00  1.06158E+03  1.036E+00  6.145E+00  1.844E-02  1.518E+00
   1    5   10     4     1    1.0000E+01  9.0919E-02   9.9091E+00  0.000E+00  0.000E+00  0.000E+00  1.07836E+03  6.368E-01  1.000E+01  2.500E-02  1.212E+00
   1    5    9     4     2    9.9091E+00  1.8158E-01   9.7275E+00  0.000E+00  0.000E+00  0.000E+00  1.07154E+03  6.315E-01  1.000E+01  5.000E-02  1.211E+00
   1    6    8     4     3    9.7275E+00  1.2689E-01   9.6006E+00  0.000E+00  0.000E+00  0.000E+00  1.06381E+03  6.256E-01  1.000E+01  3.500E-02  1.209E+00
   1    6    8     5     1    1.0432E+01  2.2686E-01   1.0205E+01  0.000E+00  0.000E+00  0.000E+00  1.05868E+03  6.790E-01  1.542E+01  6.166E-02  1.226E+00
   1    7    7     5     2    1.0205E+01  2.7894E-01   9.9265E+00  0.000E+00  0.000E+00  0.000E+00  1.05417E+03  6.732E-01  1.519E+01  7.594E-02  1.224E+00
   1    8    7     5     3    9.9265E+00  1.9221E-01   9.7343E+00  0.000E+00  0.000E+00  0.000E+00  1.04992E+03  6.676E-01  1.497E+01  5.241E-02  1.223E+00
   1    8    6     5     4    9.7343E+00  1.3577E-01   9.5985E+00  0.000E+00  0.000E+00  0.000E+00  1.04691E+03  6.637E-01  1.482E+01  3.706E-02  1.221E+00
   1    9    6     6     1    7.8784E+01  3.2569E-01   7.8458E+01  0.000E+00  0.000E+00  0.000E+00  1.04516E+03  2.428E+00  1.200E+01  6.000E-02  1.809E+00
   1   10    7     6     2    7.8458E+01  3.2533E-01   7.8133E+01  0.000E+00  0.000E+00  0.000E+00  1.04060E+03  2.422E+00  1.200E+01  6.000E-02  1.807E+00
   1   11    7     6     3    7.8133E+01  3.2497E-01   7.7808E+01  0.000E+00  0.000E+00  0.000E+00  1.03605E+03  2.416E+00  1.200E+01  6.000E-02  1.805E+00
   1   12    7     6     4    7.7808E+01  3.2461E-01   7.7483E+01  0.000E+00  0.000E+00  0.000E+00  1.03150E+03  2.410E+00  1.200E+01  6.000E-02  1.803E+00
   1   13    7     6     5    7.7483E+01  2.5897E-02   7.7457E+01  0.000E+00  0.000E+00  0.000E+00  1.02832E+03  2.407E+00  1.200E+01  2.400E-02  3.597E-01
   1   14    9     7     1    1.5000E+02  1.3317E+00   1.4867E+02  0.000E+00  0.000E+00  0.000E+00  1.03987E+03  2.288E+00  5.529E+01  5.593E-01  7.937E-01
   1   13    8     7     2    1.4867E+02  1.8009E+00   1.4687E+02  0.000E+00  0.000E+00  0.000E+00  1.03478E+03  2.279E+00  5.526E+01  6.148E-01  9.765E-01
   1   13    7     7     3    1.4687E+02  1.3702E+00   1.4550E+02  0.000E+00  0.000E+00  0.000E+00  1.02969E+03  2.271E+00  5.522E+01  5.585E-01  8.178E-01
   1   13    6     8     1    2.2295E+02  1.0170E+00   2.2194E+02  0.000E+00  0.000E+00  0.000E+00  1.02514E+03  3.265E+00  4.735E+01  4.825E-01  7.026E-01
   1   13    5     8     2    2.2194E+02  1.9942E-01   2.2174E+02  0.000E+00  0.000E+00  0.000E+00  1.01889E+03  3.262E+00  4.730E+01  4.820E-01  1.379E-01
   1   13    4     8     3    2.2174E+02 -1.9212E+00   2.2366E+02  0.000E+00  0.000E+00  0.000E+00  1.01264E+03  3.267E+00  4.737E+01  4.827E+00 -1.327E-01
   1   13    3     8     4    2.2366E+02 -3.0746E+00   2.2673E+02  0.000E+00  0.000E+00  0.000E+00  1.00641E+03  3.280E+00  4.757E+01  4.847E+00 -2.114E-01
   1   13    2     8     5    2.2673E+02 -2.5694E+00   2.2930E+02  0.000E+00  0.000E+00  0.000E+00  1.00017E+03  3.296E+00  4.779E+01  4.870E+00 -1.759E-01
   1   13    1     8     6    2.2930E+02 -2.0238E+00   2.3133E+02  0.000E+00  0.000E+00  0.000E+00  9.95183E+02  3.308E+00  4.797E+01  2.933E+00 -2.300E-01



 UBDSV3 SAVING "           GW ET" ON UNIT  61 AT TIME STEP 10, STRESS PERIOD 8
 UBDSV3 SAVING "    UZF RECHARGE" ON UNIT  61 AT TIME STEP 10, STRESS PERIOD 8
 UBDSV3 SAVING " SURFACE LEAKAGE" ON UNIT  61 AT TIME STEP 10, STRESS PERIOD 8
 UBDSV3 SAVING "       HORT+DUNN" ON UNIT  61 AT TIME STEP 10, STRESS PERIOD 8
 UBDSV3 SAVING "  STORAGE CHANGE" ON UNIT  61 AT TIME STEP 10, STRESS PERIOD 8


UNSATURATED ZONE PACKAGE VOLUMETRIC BUDGET FOR  TIME STEP    10 STRESS PERIOD    8
  ------------------------------------------------------------------------------



     CUMULATIVE VOLUMES      L**3       RATES FOR THIS TIME STEP      L**3/T
     ------------------                 ------------------------

           IN:                                      IN:
           ---                                      ---
        INFILTRATION =   155297891.4211          INFILTRATION =          60.8175

          OUT:                                     OUT:
          ----                                     ----
              UZF ET =   155132216.1549                UZF ET =          60.8175
        UZF RECHARGE =       73224.0000          UZF RECHARGE =       0.0000E+00

            IN - OUT =       92451.2662              IN - OUT =       0.0000E+00

          STORAGE:                                 STORAGE:
          --------                                 --------
      STORAGE CHANGE =       92450.0117        STORAGE CHANGE =       4.1498E-17

 PERCENT DISCREPANCY IS DIFFERENCE BETWEEN IN-OUT MINUS CHANGE IN STORAGE
 DIVIDED BY THE AVERAGE OF IN AND OUT TIMES 100

 PERCENT DISCREPANCY =           0.00     PERCENT DISCREPANCY =           0.00






 

            AG WELLS      PERIOD    8   STEP  10
 AG WELL      1   LAYER   1   ROW     6   COL     4   RATE    -9.99500    
 AG WELL      2   LAYER   1   ROW     6   COL     5   RATE    -9.99500    
 AG WELL      3   LAYER   1   ROW     7   COL     4   RATE    -9.99500    
 AG WELL      4   LAYER   1   ROW     7   COL     5   RATE    -9.99500    
 AG WELL      5   LAYER   1   ROW     8   COL     4   RATE    -9.99500    
 AG WELL      6   LAYER   1   ROW     8   COL     5   RATE    -9.99500    
 
 

        GW IRRIGATION     PERIOD    8   STEP  10
 AG WELL      1   ROW     6   COL     4   RATE     9.99500    
 AG WELL      2   ROW     6   COL     5   RATE     9.99500    
 AG WELL      3   ROW     7   COL     4   RATE     9.99500    
 AG WELL      4   ROW     7   COL     5   RATE     9.99500    
 AG WELL      5   ROW     8   COL     4   RATE     9.99500    
 AG WELL      6   ROW     8   COL     5   RATE     9.99500    
 
1
  VOLUMETRIC BUDGET FOR AGRICULTURAL FIELDS AT  END OF TIME STEP   10, STRESS PERIOD   8
  ------------------------------------------------------------------------------

     CUMULATIVE VOLUMES      L**3       RATES FOR THIS TIME STEP      L**3/T
     ------------------                 ------------------------

           IN:                                      IN:
           ---                                      ---
               AG WELLS  =   141108192.0000                 AG WELLS  =          59.9700
      DIVERSION SEGMENTS =           0.0000        DIVERSION SEGMENTS =           0.0000
       IRRIGATION PONDS  =           0.0000         IRRIGATION PONDS  =           0.0000
           GW IRRIGATION =           0.0000             GW IRRIGATION =           0.0000
           SW IRRIGATION =           0.0000             SW IRRIGATION =           0.0000
        SYSTEM LOSSES GW =           0.0000          SYSTEM LOSSES GW =           0.0000
        SYSTEM LOSSES SW =           0.0000          SYSTEM LOSSES SW =           0.0000

                TOTAL IN =   141108192.0000                  TOTAL IN =          59.9700

          OUT:                                     OUT:
          ----                                     ----
               AG WELLS  =           0.0000                 AG WELLS  =           0.0000
      DIVERSION SEGMENTS =           0.0000        DIVERSION SEGMENTS =           0.0000
       IRRIGATION PONDS  =           0.0000         IRRIGATION PONDS  =           0.0000
           GW IRRIGATION =   141108192.0000             GW IRRIGATION =          59.9700
           SW IRRIGATION =           0.0000             SW IRRIGATION =           0.0000
        SYSTEM LOSSES GW =           0.0000          SYSTEM LOSSES GW =           0.0000
        SYSTEM LOSSES SW =           0.0000          SYSTEM LOSSES SW =           0.0000

               TOTAL OUT =   141108192.0000                 TOTAL OUT =          59.9700

                IN - OUT =           0.0000                  IN - OUT =           0.0000

     PERCENT DISCREPANCY =           0.00         PERCENT DISCREPANCY =           0.00



1
  VOLUMETRIC BUDGET FOR ENTIRE MODEL AT END OF TIME STEP   10, STRESS PERIOD   8
  ------------------------------------------------------------------------------

     CUMULATIVE VOLUMES      L**3       RATES FOR THIS TIME STEP      L**3/T
     ------------------                 ------------------------

           IN:                                      IN:
           ---                                      ---
             STORAGE     =   146889280.0000               STORAGE     =          59.2841
       CONSTANT HEAD     =           0.0000         CONSTANT HEAD     =           0.0000
     HEAD DEP BOUNDS     =     4779378.0000       HEAD DEP BOUNDS     =           0.2855
      STREAM LEAKAGE     =   213832112.0000        STREAM LEAKAGE     =          13.2624
        UZF RECHARGE     =       73223.9531          UZF RECHARGE     =           0.0000
               GW ET     =           0.0000                 GW ET     =           0.0000
     SURFACE LEAKAGE     =           0.0000       SURFACE LEAKAGE     =           0.0000
           AG WELLS      =           0.0000             AG WELLS      =           0.0000

                TOTAL IN =   365573984.0000                  TOTAL IN =          72.8319

          OUT:                                     OUT:
          ----                                     ----
             STORAGE     =    43027904.0000               STORAGE     =           1.3829
       CONSTANT HEAD     =           0.0000         CONSTANT HEAD     =           0.0000
     HEAD DEP BOUNDS     =     4936588.0000       HEAD DEP BOUNDS     =           0.2992
      STREAM LEAKAGE     =   168875504.0000        STREAM LEAKAGE     =           9.5890
        UZF RECHARGE     =           0.0000          UZF RECHARGE     =           0.0000
               GW ET     =     7629781.0000                 GW ET     =           1.5908
     SURFACE LEAKAGE     =           0.0000       SURFACE LEAKAGE     =           0.0000
           AG WELLS      =   141108192.0000             AG WELLS      =          59.9700

               TOTAL OUT =   365577984.0000                 TOTAL OUT =          72.8319

                IN - OUT =       -4000.0000                  IN - OUT =       3.0518E-05

     PERCENT DISCREPANCY =          -0.00         PERCENT DISCREPANCY =           0.00






         TIME SUMMARY AT END OF TIME STEP   10 IN STRESS PERIOD    8
                    SECONDS     MINUTES      HOURS       DAYS        YEARS
                    -----------------------------------------------------------
   TIME STEP LENGTH  87667.      1461.1      24.352      1.0147     2.77799E-03
 STRESS PERIOD TIME 8.76667E+05  14611.      243.52      10.147     2.77799E-02
         TOTAL TIME 1.67431E+07 2.79052E+05  4650.9      193.79     0.53056    
1
 
 SOLVING FOR HEAD 
                                                   Max.-Head-Change                         Max.-Flux-Residual
  Residual-Control   Outer-Iter.   Inner-Iter.     Column Row Layer    Maximum-Head-Change  Column Row Layer    Maximum-Flux-Residual          L2-NORM 
          0                 1           2             5    8     1       0.6598763512E-01       5    8    1         0.3605566981E+01      0.8325008286E+01
          0                 2           2             4    7     1      -0.1897437357E+00       5    8    1        -0.1035553103E+02      0.2519260890E+02
          0                 3           2             4    7     1       0.1292029287E-01       5    8    1         0.7248413822E+00      0.1763387957E+01
          0                 4           2             4    7     1      -0.5141113587E-03       5    8    1        -0.2964456918E-01      0.7212100610E-01
          0                 5           1             4    7     1       0.6339214383E-05       5    8    1         0.3755842035E-03      0.9139007682E-03

    ------------------------------------------------
       NWT REQUIRED            5 OUTER ITERATIONS 
       AND A TOTAL OF          9 INNER ITERATIONS.
    ------------------------------------------------

 NO OUTPUT CONTROL FOR STRESS PERIOD    8   TIME STEP   11
 
 SOLVING FOR HEAD 
                                                   Max.-Head-Change                         Max.-Flux-Residual
  Residual-Control   Outer-Iter.   Inner-Iter.     Column Row Layer    Maximum-Head-Change  Column Row Layer    Maximum-Flux-Residual          L2-NORM 
          0                 1           2             5    8     1       0.6823290934E-01       5    8    1         0.3728009296E+01      0.8616466148E+01
          0                 2           2             4    7     1      -0.1898789536E+00       5    8    1        -0.1036777494E+02      0.2521787578E+02
          0                 3           2             4    7     1       0.1292950147E-01       5    8    1         0.7257026284E+00      0.1765162720E+01
          0                 4           2             4    7     1      -0.5144777742E-03       5    8    1        -0.2968019784E-01      0.7219414101E-01
          0                 5           1             4    7     1       0.6343732614E-05       5    8    1         0.3760631478E-03      0.9148533168E-03

    ------------------------------------------------
       NWT REQUIRED            5 OUTER ITERATIONS 
       AND A TOTAL OF          9 INNER ITERATIONS.
    ------------------------------------------------

 NO OUTPUT CONTROL FOR STRESS PERIOD    8   TIME STEP   12
 
 SOLVING FOR HEAD 
                                                   Max.-Head-Change                         Max.-Flux-Residual
  Residual-Control   Outer-Iter.   Inner-Iter.     Column Row Layer    Maximum-Head-Change  Column Row Layer    Maximum-Flux-Residual          L2-NORM 
          0                 1           2             5    8     1       0.7037452124E-01       5    8    1         0.3844693557E+01      0.8897157975E+01
          0                 2           2             4    7     1      -0.1900150387E+00       5    8    1        -0.1037944305E+02      0.2524240071E+02
          0                 3           2             4    7     1       0.1293876902E-01       5    8    1         0.7265226459E+00      0.1766884833E+01
          0                 4           2             4    7     1      -0.5148465357E-03       5    8    1        -0.2971405047E-01      0.7226506964E-01
          0                 5           1             4    7     1       0.6348279968E-05       5    8    1         0.3765135041E-03      0.9157858771E-03

    ------------------------------------------------
       NWT REQUIRED            5 OUTER ITERATIONS 
       AND A TOTAL OF          9 INNER ITERATIONS.
    ------------------------------------------------

 NO OUTPUT CONTROL FOR STRESS PERIOD    8   TIME STEP   13
 
 SOLVING FOR HEAD 
                                                   Max.-Head-Change                         Max.-Flux-Residual
  Residual-Control   Outer-Iter.   Inner-Iter.     Column Row Layer    Maximum-Head-Change  Column Row Layer    Maximum-Flux-Residual          L2-NORM 
          0                 1           2             5    8     1       0.7241872161E-01       5    8    1         0.3955971181E+01      0.9167632674E+01
          0                 2           2             4    7     1      -0.1901517896E+00       5    8    1        -0.1039057050E+02      0.2526621478E+02
          0                 3           2             4    7     1       0.1294808182E-01       5    8    1         0.7273034593E+00      0.1768554672E+01
          0                 4           2             4    7     1      -0.5152170978E-03       5    8    1        -0.2974616799E-01      0.7233362600E-01
          0                 5           1             4    7     1       0.6352848941E-05       5    8    1         0.3769329046E-03      0.9166635860E-03

    ------------------------------------------------
       NWT REQUIRED            5 OUTER ITERATIONS 
       AND A TOTAL OF          9 INNER ITERATIONS.
    ------------------------------------------------

 NO OUTPUT CONTROL FOR STRESS PERIOD    8   TIME STEP   14
 
 SOLVING FOR HEAD 
                                                   Max.-Head-Change                         Max.-Flux-Residual
  Residual-Control   Outer-Iter.   Inner-Iter.     Column Row Layer    Maximum-Head-Change  Column Row Layer    Maximum-Flux-Residual          L2-NORM 
          0                 1           2             5    8     1       0.7437171338E-01       5    8    1         0.4062189889E+01      0.9428395835E+01
          0                 2           2             4    7     1      -0.1902889685E+00       5    8    1        -0.1040119207E+02      0.2528934668E+02
          0                 3           2             4    7     1       0.1295742368E-01       5    8    1         0.7280487244E+00      0.1770175265E+01
          0                 4           2             4    7     1      -0.5155888169E-03       5    8    1        -0.2977681825E-01      0.7240002811E-01
          0                 5           1             4    7     1       0.6357432476E-05       5    8    1         0.3773328035E-03      0.9175100826E-03

    ------------------------------------------------
       NWT REQUIRED            5 OUTER ITERATIONS 
       AND A TOTAL OF          9 INNER ITERATIONS.
    ------------------------------------------------

 OUTPUT CONTROL FOR STRESS PERIOD    8   TIME STEP   15
    PRINT BUDGET
    SAVE BUDGET
 UBDSV1 SAVING "         STORAGE" ON UNIT 102 AT TIME STEP 15, STRESS PERIOD 8
 UBDSV2 SAVING "   CONSTANT HEAD" ON UNIT 102 AT TIME STEP 15, STRESS PERIOD 8
 UBDSV1 SAVING "FLOW RIGHT FACE " ON UNIT 102 AT TIME STEP 15, STRESS PERIOD 8
 UBDSV1 SAVING "FLOW FRONT FACE " ON UNIT 102 AT TIME STEP 15, STRESS PERIOD 8

  HEAD DEP BOUNDS   PERIOD    8   STEP    15
 BOUNDARY      1   LAYER   1   ROW    13   COL     1   RATE   -0.298995    
 BOUNDARY      2   LAYER   1   ROW    14   COL     9   RATE    0.285478    



 STREAM LISTING     PERIOD      8   STEP       15

 LAYER ROW COL. STREAM  RCH.  FLOW INTO     FLOW TO   FLOW OUT OF   OVRLND.     DIRECT     STREAM       STREAM     STREAM     STREAM   STREAMBED  STREAMBED
                SEG.NO.  NO.  STRM. RCH.    AQUIFER    STRM. RCH.    RUNOFF     PRECIP       ET          HEAD       DEPTH      WIDTH   CONDCTNC.   GRADIENT

   1    1    1     1     1    7.4999E+01  4.2231E-01   7.4577E+01  0.000E+00  0.000E+00  0.000E+00  1.09475E+03  1.698E+00  1.998E+01  8.990E-02  1.566E+00
   1    2    2     1     2    7.4577E+01  6.5422E-01   7.3923E+01  0.000E+00  0.000E+00  0.000E+00  1.08975E+03  1.692E+00  1.992E+01  1.394E-01  1.564E+00
   1    3    3     1     3    7.3923E+01  5.5813E-01   7.3365E+01  0.000E+00  0.000E+00  0.000E+00  1.08410E+03  1.685E+00  1.985E+01  1.191E-01  1.562E+00
   1    3    4     1     4    7.3365E+01  5.1411E-01   7.2851E+01  0.000E+00  0.000E+00  0.000E+00  1.07909E+03  1.679E+00  1.980E+01  1.099E-01  1.560E+00
   1    4    5     2     1    7.0851E+01  4.0967E-01   7.0441E+01  0.000E+00  0.000E+00  0.000E+00  1.07419E+03  2.252E+00  1.200E+01  7.800E-02  1.751E+00
   1    5    6     2     2    7.0441E+01  3.1471E-01   7.0126E+01  0.000E+00  0.000E+00  0.000E+00  1.06875E+03  2.245E+00  1.200E+01  6.000E-02  1.748E+00
   1    6    6     2     3    7.0126E+01  3.1435E-01   6.9812E+01  0.000E+00  0.000E+00  0.000E+00  1.06403E+03  2.239E+00  1.200E+01  6.000E-02  1.746E+00
   1    7    6     2     4    6.9812E+01  3.1399E-01   6.9498E+01  0.000E+00  0.000E+00  0.000E+00  1.05931E+03  2.233E+00  1.200E+01  6.000E-02  1.744E+00
   1    8    6     2     5    6.9498E+01  3.1363E-01   6.9184E+01  0.000E+00  0.000E+00  0.000E+00  1.05459E+03  2.227E+00  1.200E+01  6.000E-02  1.742E+00
   1    3    5     3     1    2.0000E+00  2.8252E-01   1.7175E+00  0.000E+00  0.000E+00  0.000E+00  1.07555E+03  1.909E+00  9.636E+00  7.227E-02  1.955E+00
   1    3    6     3     2    1.7175E+00  2.4905E-01   1.4684E+00  0.000E+00  0.000E+00  0.000E+00  1.07264E+03  1.727E+00  8.909E+00  6.682E-02  1.864E+00
   1    3    7     3     3    1.4684E+00  1.9718E-01   1.2712E+00  0.000E+00  0.000E+00  0.000E+00  1.06987E+03  1.555E+00  8.218E+00  5.547E-02  1.777E+00
   1    4    8     3     4    1.2712E+00  2.2567E-01   1.0456E+00  0.000E+00  0.000E+00  0.000E+00  1.06682E+03  1.364E+00  7.455E+00  6.709E-02  1.682E+00
   1    5    8     3     5    1.0456E+00  1.5790E-01   8.8768E-01  0.000E+00  0.000E+00  0.000E+00  1.06362E+03  1.164E+00  6.655E+00  4.991E-02  1.582E+00
   1    6    8     3     6    8.8768E-01  5.5980E-02   8.3170E-01  0.000E+00  0.000E+00  0.000E+00  1.06158E+03  1.036E+00  6.145E+00  1.844E-02  1.518E+00
   1    5   10     4     1    1.0000E+01  9.0919E-02   9.9091E+00  0.000E+00  0.000E+00  0.000E+00  1.07836E+03  6.368E-01  1.000E+01  2.500E-02  1.212E+00
   1    5    9     4     2    9.9091E+00  1.8158E-01   9.7275E+00  0.000E+00  0.000E+00  0.000E+00  1.07154E+03  6.315E-01  1.000E+01  5.000E-02  1.211E+00
   1    6    8     4     3    9.7275E+00  1.2689E-01   9.6006E+00  0.000E+00  0.000E+00  0.000E+00  1.06381E+03  6.256E-01  1.000E+01  3.500E-02  1.209E+00
   1    6    8     5     1    1.0432E+01  2.2686E-01   1.0205E+01  0.000E+00  0.000E+00  0.000E+00  1.05868E+03  6.790E-01  1.542E+01  6.166E-02  1.226E+00
   1    7    7     5     2    1.0205E+01  2.7894E-01   9.9265E+00  0.000E+00  0.000E+00  0.000E+00  1.05417E+03  6.732E-01  1.519E+01  7.594E-02  1.224E+00
   1    8    7     5     3    9.9265E+00  1.9221E-01   9.7343E+00  0.000E+00  0.000E+00  0.000E+00  1.04992E+03  6.676E-01  1.497E+01  5.241E-02  1.223E+00
   1    8    6     5     4    9.7343E+00  1.3577E-01   9.5985E+00  0.000E+00  0.000E+00  0.000E+00  1.04691E+03  6.637E-01  1.482E+01  3.706E-02  1.221E+00
   1    9    6     6     1    7.8783E+01  3.2569E-01   7.8457E+01  0.000E+00  0.000E+00  0.000E+00  1.04516E+03  2.428E+00  1.200E+01  6.000E-02  1.809E+00
   1   10    7     6     2    7.8457E+01  3.2533E-01   7.8132E+01  0.000E+00  0.000E+00  0.000E+00  1.04060E+03  2.422E+00  1.200E+01  6.000E-02  1.807E+00
   1   11    7     6     3    7.8132E+01  3.2497E-01   7.7807E+01  0.000E+00  0.000E+00  0.000E+00  1.03605E+03  2.416E+00  1.200E+01  6.000E-02  1.805E+00
   1   12    7     6     4    7.7807E+01  3.2461E-01   7.7482E+01  0.000E+00  0.000E+00  0.000E+00  1.03150E+03  2.410E+00  1.200E+01  6.000E-02  1.803E+00
   1   13    7     6     5    7.7482E+01  2.5848E-02   7.7456E+01  0.000E+00  0.000E+00  0.000E+00  1.02832E+03  2.407E+00  1.200E+01  2.400E-02  3.590E-01
   1   14    9     7     1    1.5000E+02  1.3317E+00   1.4867E+02  0.000E+00  0.000E+00  0.000E+00  1.03987E+03  2.288E+00  5.529E+01  5.593E-01  7.937E-01
   1   13    8     7     2    1.4867E+02  1.8003E+00   1.4687E+02  0.000E+00  0.000E+00  0.000E+00  1.03478E+03  2.279E+00  5.526E+01  6.148E-01  9.761E-01
   1   13    7     7     3    1.4687E+02  1.3690E+00   1.4550E+02  0.000E+00  0.000E+00  0.000E+00  1.02969E+03  2.271E+00  5.522E+01  5.585E-01  8.171E-01
   1   13    6     8     1    2.2296E+02  1.0167E+00   2.2194E+02  0.000E+00  0.000E+00  0.000E+00  1.02514E+03  3.265E+00  4.735E+01  4.825E-01  7.024E-01
   1   13    5     8     2    2.2194E+02  2.0027E-01   2.2174E+02  0.000E+00  0.000E+00  0.000E+00  1.01889E+03  3.262E+00  4.730E+01  4.820E-01  1.385E-01
   1   13    4     8     3    2.2174E+02 -1.9164E+00   2.2365E+02  0.000E+00  0.000E+00  0.000E+00  1.01264E+03  3.267E+00  4.737E+01  4.827E+00 -1.323E-01
   1   13    3     8     4    2.2365E+02 -3.0694E+00   2.2672E+02  0.000E+00  0.000E+00  0.000E+00  1.00641E+03  3.280E+00  4.757E+01  4.847E+00 -2.111E-01
   1   13    2     8     5    2.2672E+02 -2.5431E+00   2.2927E+02  0.000E+00  0.000E+00  0.000E+00  1.00017E+03  3.296E+00  4.779E+01  4.870E+00 -1.741E-01
   1   13    1     8     6    2.2927E+02 -2.0097E+00   2.3128E+02  0.000E+00  0.000E+00  0.000E+00  9.95183E+02  3.308E+00  4.797E+01  2.933E+00 -2.284E-01



 UBDSV3 SAVING "           GW ET" ON UNIT  61 AT TIME STEP 15, STRESS PERIOD 8
 UBDSV3 SAVING "    UZF RECHARGE" ON UNIT  61 AT TIME STEP 15, STRESS PERIOD 8
 UBDSV3 SAVING " SURFACE LEAKAGE" ON UNIT  61 AT TIME STEP 15, STRESS PERIOD 8
 UBDSV3 SAVING "       HORT+DUNN" ON UNIT  61 AT TIME STEP 15, STRESS PERIOD 8
 UBDSV3 SAVING "  STORAGE CHANGE" ON UNIT  61 AT TIME STEP 15, STRESS PERIOD 8


UNSATURATED ZONE PACKAGE VOLUMETRIC BUDGET FOR  TIME STEP    15 STRESS PERIOD    8
  ------------------------------------------------------------------------------



     CUMULATIVE VOLUMES      L**3       RATES FOR THIS TIME STEP      L**3/T
     ------------------                 ------------------------

           IN:                                      IN:
           ---                                      ---
        INFILTRATION =   181956227.6505          INFILTRATION =          60.8175

          OUT:                                     OUT:
          ----                                     ----
              UZF ET =   181790552.3843                UZF ET =          60.8175
        UZF RECHARGE =       73224.0000          UZF RECHARGE =       0.0000E+00

            IN - OUT =       92451.2662              IN - OUT =       0.0000E+00

          STORAGE:                                 STORAGE:
          --------                                 --------
      STORAGE CHANGE =       92450.0117        STORAGE CHANGE =       0.0000E+00

 PERCENT DISCREPANCY IS DIFFERENCE BETWEEN IN-OUT MINUS CHANGE IN STORAGE
 DIVIDED BY THE AVERAGE OF IN AND OUT TIMES 100

 PERCENT DISCREPANCY =           0.00     PERCENT DISCREPANCY =           0.00






 

            AG WELLS      PERIOD    8   STEP  15
 AG WELL      1   LAYER   1   ROW     6   COL     4   RATE    -9.99500    
 AG WELL      2   LAYER   1   ROW     6   COL     5   RATE    -9.99500    
 AG WELL      3   LAYER   1   ROW     7   COL     4   RATE    -9.99500    
 AG WELL      4   LAYER   1   ROW     7   COL     5   RATE    -9.99500    
 AG WELL      5   LAYER   1   ROW     8   COL     4   RATE    -9.99500    
 AG WELL      6   LAYER   1   ROW     8   COL     5   RATE    -9.99500    
 
 

        GW IRRIGATION     PERIOD    8   STEP  15
 AG WELL      1   ROW     6   COL     4   RATE     9.99500    
 AG WELL      2   ROW     6   COL     5   RATE     9.99500    
 AG WELL      3   ROW     7   COL     4   RATE     9.99500    
 AG WELL      4   ROW     7   COL     5   RATE     9.99500    
 AG WELL      5   ROW     8   COL     4   RATE     9.99500    
 AG WELL      6   ROW     8   COL     5   RATE     9.99500    
 
1
  VOLUMETRIC BUDGET FOR AGRICULTURAL FIELDS AT  END OF TIME STEP   15, STRESS PERIOD   8
  ------------------------------------------------------------------------------

     CUMULATIVE VOLUMES      L**3       RATES FOR THIS TIME STEP      L**3/T
     ------------------                 ------------------------

           IN:                                      IN:
           ---                                      ---
               AG WELLS  =   167395072.0000                 AG WELLS  =          59.9700
      DIVERSION SEGMENTS =           0.0000        DIVERSION SEGMENTS =           0.0000
       IRRIGATION PONDS  =           0.0000         IRRIGATION PONDS  =           0.0000
           GW IRRIGATION =           0.0000             GW IRRIGATION =           0.0000
           SW IRRIGATION =           0.0000             SW IRRIGATION =           0.0000
        SYSTEM LOSSES GW =           0.0000          SYSTEM LOSSES GW =           0.0000
        SYSTEM LOSSES SW =           0.0000          SYSTEM LOSSES SW =           0.0000

                TOTAL IN =   167395072.0000                  TOTAL IN =          59.9700

          OUT:                                     OUT:
          ----                                     ----
               AG WELLS  =           0.0000                 AG WELLS  =           0.0000
      DIVERSION SEGMENTS =           0.0000        DIVERSION SEGMENTS =           0.0000
       IRRIGATION PONDS  =           0.0000         IRRIGATION PONDS  =           0.0000
           GW IRRIGATION =   167395072.0000             GW IRRIGATION =          59.9700
           SW IRRIGATION =           0.0000             SW IRRIGATION =           0.0000
        SYSTEM LOSSES GW =           0.0000          SYSTEM LOSSES GW =           0.0000
        SYSTEM LOSSES SW =           0.0000          SYSTEM LOSSES SW =           0.0000

               TOTAL OUT =   167395072.0000                 TOTAL OUT =          59.9700

                IN - OUT =           0.0000                  IN - OUT =           0.0000

     PERCENT DISCREPANCY =           0.00         PERCENT DISCREPANCY =           0.00



1
  VOLUMETRIC BUDGET FOR ENTIRE MODEL AT END OF TIME STEP   15, STRESS PERIOD   8
  ------------------------------------------------------------------------------

     CUMULATIVE VOLUMES      L**3       RATES FOR THIS TIME STEP      L**3/T
     ------------------                 ------------------------

           IN:                                      IN:
           ---                                      ---
             STORAGE     =   172830608.0000               STORAGE     =          59.1275
       CONSTANT HEAD     =           0.0000         CONSTANT HEAD     =           0.0000
     HEAD DEP BOUNDS     =     4904513.0000       HEAD DEP BOUNDS     =           0.2855
      STREAM LEAKAGE     =   219645088.0000        STREAM LEAKAGE     =          13.2610
        UZF RECHARGE     =       73223.9531          UZF RECHARGE     =           0.0000
               GW ET     =           0.0000                 GW ET     =           0.0000
     SURFACE LEAKAGE     =           0.0000       SURFACE LEAKAGE     =           0.0000
           AG WELLS      =           0.0000             AG WELLS      =           0.0000

                TOTAL IN =   397453440.0000                  TOTAL IN =          72.6740

          OUT:                                     OUT:
          ----                                     ----
             STORAGE     =    43616532.0000               STORAGE     =           1.3174
       CONSTANT HEAD     =           0.0000         CONSTANT HEAD     =           0.0000
     HEAD DEP BOUNDS     =     5067679.5000       HEAD DEP BOUNDS     =           0.2990
      STREAM LEAKAGE     =   173064368.0000        STREAM LEAKAGE     =           9.5386
        UZF RECHARGE     =           0.0000          UZF RECHARGE     =           0.0000
               GW ET     =     8313781.0000                 GW ET     =           1.5490
     SURFACE LEAKAGE     =           0.0000       SURFACE LEAKAGE     =           0.0000
           AG WELLS      =   167395072.0000             AG WELLS      =          59.9700

               TOTAL OUT =   397457408.0000                 TOTAL OUT =          72.6740

                IN - OUT =       -3968.0000                  IN - OUT =       3.8147E-05

     PERCENT DISCREPANCY =          -0.00         PERCENT DISCREPANCY =           0.00






         TIME SUMMARY AT END OF TIME STEP   15 IN STRESS PERIOD    8
                    SECONDS     MINUTES      HOURS       DAYS        YEARS
                    -----------------------------------------------------------
   TIME STEP LENGTH  87667.      1461.1      24.352      1.0147     2.77799E-03
 STRESS PERIOD TIME 1.31500E+06  21917.      365.28      15.220     4.16698E-02
         TOTAL TIME 1.71814E+07 2.86357E+05  4772.6      198.86     0.54445    
1
 
 SOLVING FOR HEAD 
                                                   Max.-Head-Change                         Max.-Flux-Residual
  Residual-Control   Outer-Iter.   Inner-Iter.     Column Row Layer    Maximum-Head-Change  Column Row Layer    Maximum-Flux-Residual          L2-NORM 
          0                 1           2             5    8     1       0.7623937027E-01       5    8    1         0.4163679165E+01      0.9679944746E+01
          0                 2           2             4    7     1      -0.1904263941E+00       5    8    1        -0.1041134070E+02      0.2531182443E+02
          0                 3           2             4    7     1       0.1296678226E-01       5    8    1         0.7287607570E+00      0.1771750000E+01
          0                 4           2             4    7     1      -0.5159612012E-03       5    8    1        -0.2980609691E-01      0.7246455100E-01
          0                 5           1             4    7     1       0.6362023852E-05       5    8    1         0.3777144864E-03      0.9183349505E-03

    ------------------------------------------------
       NWT REQUIRED            5 OUTER ITERATIONS 
       AND A TOTAL OF          9 INNER ITERATIONS.
    ------------------------------------------------

 NO OUTPUT CONTROL FOR STRESS PERIOD    8   TIME STEP   16
 
 SOLVING FOR HEAD 
                                                   Max.-Head-Change                         Max.-Flux-Residual
  Residual-Control   Outer-Iter.   Inner-Iter.     Column Row Layer    Maximum-Head-Change  Column Row Layer    Maximum-Flux-Residual          L2-NORM 
          0                 1           2             5    8     1       0.7802671268E-01       5    8    1         0.4260719971E+01      0.9922742352E+01
          0                 2           2             4    7     1      -0.1905638868E+00       5    8    1        -0.1042104448E+02      0.2533367486E+02
          0                 3           2             4    7     1       0.1297614532E-01       5    8    1         0.7294415340E+00      0.1773280755E+01
          0                 4           2             4    7     1      -0.5163337648E-03       5    8    1        -0.2983408579E-01      0.7252727100E-01
          0                 5           1             4    7     1       0.6366617805E-05       5    8    1         0.3780790591E-03      0.9191364355E-03

    ------------------------------------------------
       NWT REQUIRED            5 OUTER ITERATIONS 
       AND A TOTAL OF          9 INNER ITERATIONS.
    ------------------------------------------------

 NO OUTPUT CONTROL FOR STRESS PERIOD    8   TIME STEP   17
 
 SOLVING FOR HEAD 
                                                   Max.-Head-Change                         Max.-Flux-Residual
  Residual-Control   Outer-Iter.   Inner-Iter.     Column Row Layer    Maximum-Head-Change  Column Row Layer    Maximum-Flux-Residual          L2-NORM 
          0                 1           2             5    8     1       0.7973880211E-01       5    8    1         0.4353596210E+01      0.1015722057E+02
          0                 2           2             4    7     1      -0.1907012807E+00       5    8    1        -0.1043033182E+02      0.2535492211E+02
          0                 3           2             4    7     1       0.1298550160E-01       5    8    1         0.7300930506E+00      0.1774769222E+01
          0                 4           2             4    7     1      -0.5167060589E-03       5    8    1        -0.2986086732E-01      0.7258825696E-01
          0                 5           1             4    7     1       0.6371208621E-05       5    8    1         0.3784275957E-03      0.9199158322E-03

    ------------------------------------------------
       NWT REQUIRED            5 OUTER ITERATIONS 
       AND A TOTAL OF          9 INNER ITERATIONS.
    ------------------------------------------------

 NO OUTPUT CONTROL FOR STRESS PERIOD    8   TIME STEP   18
 
 SOLVING FOR HEAD 
                                                   Max.-Head-Change                         Max.-Flux-Residual
  Residual-Control   Outer-Iter.   Inner-Iter.     Column Row Layer    Maximum-Head-Change  Column Row Layer    Maximum-Flux-Residual          L2-NORM 
          0                 1           2             5    8     1       0.8138019687E-01       5    8    1         0.4442562458E+01      0.1038380373E+02
          0                 2           2             4    7     1      -0.1908384240E+00       5    8    1        -0.1043922816E+02      0.2537559143E+02
          0                 3           2             4    7     1       0.1299484074E-01       5    8    1         0.7307160511E+00      0.1776216306E+01
          0                 4           2             4    7     1      -0.5170776708E-03       5    8    1        -0.2988637104E-01      0.7264746160E-01
          0                 5           1             4    7     1       0.6375790700E-05       5    8    1         0.3787523733E-03      0.9206675943E-03

    ------------------------------------------------
       NWT REQUIRED            5 OUTER ITERATIONS 
       AND A TOTAL OF          9 INNER ITERATIONS.
    ------------------------------------------------

 NO OUTPUT CONTROL FOR STRESS PERIOD    8   TIME STEP   19
 
 SOLVING FOR HEAD 
                                                   Max.-Head-Change                         Max.-Flux-Residual
  Residual-Control   Outer-Iter.   Inner-Iter.     Column Row Layer    Maximum-Head-Change  Column Row Layer    Maximum-Flux-Residual          L2-NORM 
          0                 1           2             5    8     1       0.8295497532E-01       5    8    1         0.4527847211E+01      0.1060286299E+02
          0                 2           2             4    7     1      -0.1909751635E+00       5    8    1        -0.1044775636E+02      0.2539570404E+02
          0                 3           2             4    7     1       0.1300415233E-01       5    8    1         0.7313130420E+00      0.1777624221E+01
          0                 4           2             4    7     1      -0.5174481867E-03       5    8    1        -0.2991078793E-01      0.7270504532E-01
          0                 5           1             4    7     1       0.6380359001E-05       5    8    1         0.3790618034E-03      0.9213970126E-03

    ------------------------------------------------
       NWT REQUIRED            5 OUTER ITERATIONS 
       AND A TOTAL OF          9 INNER ITERATIONS.
    ------------------------------------------------

 NO OUTPUT CONTROL FOR STRESS PERIOD    8   TIME STEP   20
 
 SOLVING FOR HEAD 
                                                   Max.-Head-Change                         Max.-Flux-Residual
  Residual-Control   Outer-Iter.   Inner-Iter.     Column Row Layer    Maximum-Head-Change  Column Row Layer    Maximum-Flux-Residual          L2-NORM 
          0                 1           2             5    8     1       0.8446720878E-01       5    8    1         0.4609677653E+01      0.1081478505E+02
          0                 2           2             4    7     1      -0.1911113989E+00       5    8    1        -0.1045593914E+02      0.2541528285E+02
          0                 3           2             4    7     1       0.1301342953E-01       5    8    1         0.7318858534E+00      0.1778994767E+01
          0                 4           2             4    7     1      -0.5178173352E-03       5    8    1        -0.2993421586E-01      0.7276110046E-01
          0                 5           1             4    7     1       0.6384910836E-05       5    8    1         0.3793587193E-03      0.9221078246E-03

    ------------------------------------------------
       NWT REQUIRED            5 OUTER ITERATIONS 
       AND A TOTAL OF          9 INNER ITERATIONS.
    ------------------------------------------------

 NO OUTPUT CONTROL FOR STRESS PERIOD    8   TIME STEP   21
 
 SOLVING FOR HEAD 
                                                   Max.-Head-Change                         Max.-Flux-Residual
  Residual-Control   Outer-Iter.   Inner-Iter.     Column Row Layer    Maximum-Head-Change  Column Row Layer    Maximum-Flux-Residual          L2-NORM 
          0                 1           2             5    8     1       0.8592038574E-01       5    8    1         0.4688249172E+01      0.1101989991E+02
          0                 2           2             4    7     1      -0.1912469865E+00       5    8    1        -0.1046379603E+02      0.2543434731E+02
          0                 3           2             4    7     1       0.1302266256E-01       5    8    1         0.7324358532E+00      0.1780329305E+01
          0                 4           2             4    7     1      -0.5181847262E-03       5    8    1        -0.2995671082E-01      0.7281568316E-01
          0                 5           1             4    7     1       0.6389441500E-05       5    8    1         0.3796437857E-03      0.9227992054E-03

    ------------------------------------------------
       NWT REQUIRED            5 OUTER ITERATIONS 
       AND A TOTAL OF          9 INNER ITERATIONS.
    ------------------------------------------------

 NO OUTPUT CONTROL FOR STRESS PERIOD    8   TIME STEP   22
 
 SOLVING FOR HEAD 
                                                   Max.-Head-Change                         Max.-Flux-Residual
  Residual-Control   Outer-Iter.   Inner-Iter.     Column Row Layer    Maximum-Head-Change  Column Row Layer    Maximum-Flux-Residual          L2-NORM 
          0                 1           2             5    8     1       0.8731789865E-01       5    8    1         0.4763750513E+01      0.1121853579E+02
          0                 2           2             4    7     1      -0.1913818342E+00       5    8    1        -0.1047134591E+02      0.2545291733E+02
          0                 3           2             4    7     1       0.1303184516E-01       5    8    1         0.7329643623E+00      0.1781629230E+01
          0                 4           2             4    7     1      -0.5185501105E-03       5    8    1        -0.2997832678E-01      0.7286885018E-01
          0                 5           1             4    7     1       0.6393946512E-05       5    8    1         0.3799177316E-03      0.9234735988E-03

    ------------------------------------------------
       NWT REQUIRED            5 OUTER ITERATIONS 
       AND A TOTAL OF          9 INNER ITERATIONS.
    ------------------------------------------------

 NO OUTPUT CONTROL FOR STRESS PERIOD    8   TIME STEP   23
 
 SOLVING FOR HEAD 
                                                   Max.-Head-Change                         Max.-Flux-Residual
  Residual-Control   Outer-Iter.   Inner-Iter.     Column Row Layer    Maximum-Head-Change  Column Row Layer    Maximum-Flux-Residual          L2-NORM 
          0                 1           2             5    8     1       0.8866316843E-01       5    8    1         0.4836373278E+01      0.1141100866E+02
          0                 2           2             4    7     1      -0.1915158451E+00       5    8    1        -0.1047860793E+02      0.2547101213E+02
          0                 3           2             4    7     1       0.1304097074E-01       5    8    1         0.7334727219E+00      0.1782895887E+01
          0                 4           2             4    7     1      -0.5189132257E-03       5    8    1        -0.2999911864E-01      0.7292065633E-01
          0                 5           1             4    7     1       0.6398423745E-05       5    8    1         0.3801812343E-03      0.9241298974E-03

    ------------------------------------------------
       NWT REQUIRED            5 OUTER ITERATIONS 
       AND A TOTAL OF          9 INNER ITERATIONS.
    ------------------------------------------------

 NO OUTPUT CONTROL FOR STRESS PERIOD    8   TIME STEP   24
 
 SOLVING FOR HEAD 
                                                   Max.-Head-Change                         Max.-Flux-Residual
  Residual-Control   Outer-Iter.   Inner-Iter.     Column Row Layer    Maximum-Head-Change  Column Row Layer    Maximum-Flux-Residual          L2-NORM 
          0                 1           2             5    8     1       0.8995882495E-01       5    8    1         0.4906263442E+01      0.1159758977E+02
          0                 2           2             4    7     1      -0.1916489194E+00       5    8    1        -0.1048559671E+02      0.2548864872E+02
          0                 3           2             4    7     1       0.1305003250E-01       5    8    1         0.7339619538E+00      0.1784130467E+01
          0                 4           2             4    7     1      -0.5192738028E-03       5    8    1        -0.3001912817E-01      0.7297115060E-01
          0                 5           1             4    7     1       0.6402869950E-05       5    8    1         0.3804348216E-03      0.9247693561E-03

    ------------------------------------------------
       NWT REQUIRED            5 OUTER ITERATIONS 
       AND A TOTAL OF          9 INNER ITERATIONS.
    ------------------------------------------------

 NO OUTPUT CONTROL FOR STRESS PERIOD    8   TIME STEP   25
 
 SOLVING FOR HEAD 
                                                   Max.-Head-Change                         Max.-Flux-Residual
  Residual-Control   Outer-Iter.   Inner-Iter.     Column Row Layer    Maximum-Head-Change  Column Row Layer    Maximum-Flux-Residual          L2-NORM 
          0                 1           2             5    8     1       0.9120787322E-01       5    8    1         0.4973588772E+01      0.1177855756E+02
          0                 2           2             4    7     1      -0.1917809790E+00       5    8    1        -0.1049232900E+02      0.2550584407E+02
          0                 3           2             4    7     1       0.1305902511E-01       5    8    1         0.7344332323E+00      0.1785334159E+01
          0                 4           2             4    7     1      -0.5196316277E-03       5    8    1        -0.3003840342E-01      0.7302038149E-01
          0                 5           1             4    7     1       0.6407281991E-05       5    8    1         0.3806790974E-03      0.9253931543E-03

    ------------------------------------------------
       NWT REQUIRED            5 OUTER ITERATIONS 
       AND A TOTAL OF          9 INNER ITERATIONS.
    ------------------------------------------------

 NO OUTPUT CONTROL FOR STRESS PERIOD    8   TIME STEP   26
 
 SOLVING FOR HEAD 
                                                   Max.-Head-Change                         Max.-Flux-Residual
  Residual-Control   Outer-Iter.   Inner-Iter.     Column Row Layer    Maximum-Head-Change  Column Row Layer    Maximum-Flux-Residual          L2-NORM 
          0                 1           2             5    8     1       0.9241268691E-01       5    8    1         0.5038481533E+01      0.1195417991E+02
          0                 2           2             4    7     1      -0.1919119669E+00       5    8    1        -0.1049881805E+02      0.2552261527E+02
          0                 3           2             4    7     1       0.1306794472E-01       5    8    1         0.7348874832E+00      0.1786508157E+01
          0                 4           2             4    7     1      -0.5199865481E-03       5    8    1        -0.3005698220E-01      0.7306839811E-01
          0                 5           1             4    7     1       0.6411658186E-05       5    8    1         0.3809145371E-03      0.9260052970E-03

    ------------------------------------------------
       NWT REQUIRED            5 OUTER ITERATIONS 
       AND A TOTAL OF          9 INNER ITERATIONS.
    ------------------------------------------------

 NO OUTPUT CONTROL FOR STRESS PERIOD    8   TIME STEP   27
 
 SOLVING FOR HEAD 
                                                   Max.-Head-Change                         Max.-Flux-Residual
  Residual-Control   Outer-Iter.   Inner-Iter.     Column Row Layer    Maximum-Head-Change  Column Row Layer    Maximum-Flux-Residual          L2-NORM 
          0                 1           2             5    8     1       0.9357576297E-01       5    8    1         0.5101080504E+01      0.1212466746E+02
          0                 2           2             4    7     1      -0.1920417934E+00       5    8    1        -0.1050507772E+02      0.2553897593E+02
          0                 3           2             4    7     1       0.1307678521E-01       5    8    1         0.7353256778E+00      0.1787653416E+01
          0                 4           2             4    7     1      -0.5203383205E-03       5    8    1        -0.3007490431E-01      0.7311523912E-01
          0                 5           1             4    7     1       0.6415995737E-05       5    8    1         0.3811416693E-03      0.9265952767E-03

    ------------------------------------------------
       NWT REQUIRED            5 OUTER ITERATIONS 
       AND A TOTAL OF          9 INNER ITERATIONS.
    ------------------------------------------------

 NO OUTPUT CONTROL FOR STRESS PERIOD    8   TIME STEP   28
 
 SOLVING FOR HEAD 
                                                   Max.-Head-Change                         Max.-Flux-Residual
  Residual-Control   Outer-Iter.   Inner-Iter.     Column Row Layer    Maximum-Head-Change  Column Row Layer    Maximum-Flux-Residual          L2-NORM 
          0                 1           2             5    8     1       0.9469942411E-01       5    8    1         0.5161515152E+01      0.1229027191E+02
          0                 2           2             4    7     1      -0.1921704166E+00       5    8    1        -0.1051112096E+02      0.2555494207E+02
          0                 3           2             4    7     1       0.1308554373E-01       5    8    1         0.7357487225E+00      0.1788771055E+01
          0                 4           2             4    7     1      -0.5206868311E-03       5    8    1        -0.3009220679E-01      0.7316095068E-01
          0                 5           1             4    7     1       0.6420293186E-05       5    8    1         0.3813609378E-03      0.9271755980E-03

    ------------------------------------------------
       NWT REQUIRED            5 OUTER ITERATIONS 
       AND A TOTAL OF          9 INNER ITERATIONS.
    ------------------------------------------------

 NO OUTPUT CONTROL FOR STRESS PERIOD    8   TIME STEP   29
 
 SOLVING FOR HEAD 
                                                   Max.-Head-Change                         Max.-Flux-Residual
  Residual-Control   Outer-Iter.   Inner-Iter.     Column Row Layer    Maximum-Head-Change  Column Row Layer    Maximum-Flux-Residual          L2-NORM 
          0                 1           2             5    8     1       0.9578556121E-01       5    8    1         0.5219890230E+01      0.1245119651E+02
          0                 2           2             4    7     1      -0.1922977873E+00       5    8    1        -0.1051695826E+02      0.2557052770E+02
          0                 3           2             4    7     1       0.1309421693E-01       5    8    1         0.7361573504E+00      0.1789862059E+01
          0                 4           2             4    7     1      -0.5210319470E-03       5    8    1        -0.3010891961E-01      0.7320557282E-01
          0                 5           1             4    7     1       0.6424548405E-05       5    8    1         0.3815727471E-03      0.9277407834E-03

    ------------------------------------------------
       NWT REQUIRED            5 OUTER ITERATIONS 
       AND A TOTAL OF          9 INNER ITERATIONS.
    ------------------------------------------------

 NO OUTPUT CONTROL FOR STRESS PERIOD    8   TIME STEP   30



 STREAM LISTING     PERIOD      8   STEP       30

 LAYER ROW COL. STREAM  RCH.  FLOW INTO     FLOW TO   FLOW OUT OF   OVRLND.     DIRECT     STREAM       STREAM     STREAM     STREAM   STREAMBED  STREAMBED
                SEG.NO.  NO.  STRM. RCH.    AQUIFER    STRM. RCH.    RUNOFF     PRECIP       ET          HEAD       DEPTH      WIDTH   CONDCTNC.   GRADIENT

   1    1    1     1     1    7.4999E+01  4.2231E-01   7.4577E+01  0.000E+00  0.000E+00  0.000E+00  1.09475E+03  1.698E+00  1.998E+01  8.990E-02  1.566E+00
   1    2    2     1     2    7.4577E+01  6.5422E-01   7.3923E+01  0.000E+00  0.000E+00  0.000E+00  1.08975E+03  1.692E+00  1.992E+01  1.394E-01  1.564E+00
   1    3    3     1     3    7.3923E+01  5.5813E-01   7.3365E+01  0.000E+00  0.000E+00  0.000E+00  1.08410E+03  1.685E+00  1.985E+01  1.191E-01  1.562E+00
   1    3    4     1     4    7.3365E+01  5.1411E-01   7.2851E+01  0.000E+00  0.000E+00  0.000E+00  1.07909E+03  1.679E+00  1.980E+01  1.099E-01  1.560E+00
   1    4    5     2     1    7.0851E+01  4.0967E-01   7.0441E+01  0.000E+00  0.000E+00  0.000E+00  1.07419E+03  2.252E+00  1.200E+01  7.800E-02  1.751E+00
   1    5    6     2     2    7.0441E+01  3.1471E-01   7.0126E+01  0.000E+00  0.000E+00  0.000E+00  1.06875E+03  2.245E+00  1.200E+01  6.000E-02  1.748E+00
   1    6    6     2     3    7.0126E+01  3.1435E-01   6.9812E+01  0.000E+00  0.000E+00  0.000E+00  1.06403E+03  2.239E+00  1.200E+01  6.000E-02  1.746E+00
   1    7    6     2     4    6.9812E+01  3.1399E-01   6.9498E+01  0.000E+00  0.000E+00  0.000E+00  1.05931E+03  2.233E+00  1.200E+01  6.000E-02  1.744E+00
   1    8    6     2     5    6.9498E+01  3.1363E-01   6.9184E+01  0.000E+00  0.000E+00  0.000E+00  1.05459E+03  2.227E+00  1.200E+01  6.000E-02  1.742E+00
   1    3    5     3     1    2.0000E+00  2.8252E-01   1.7175E+00  0.000E+00  0.000E+00  0.000E+00  1.07555E+03  1.909E+00  9.636E+00  7.227E-02  1.955E+00
   1    3    6     3     2    1.7175E+00  2.4905E-01   1.4684E+00  0.000E+00  0.000E+00  0.000E+00  1.07264E+03  1.727E+00  8.909E+00  6.682E-02  1.864E+00
   1    3    7     3     3    1.4684E+00  1.9718E-01   1.2712E+00  0.000E+00  0.000E+00  0.000E+00  1.06987E+03  1.555E+00  8.218E+00  5.547E-02  1.777E+00
   1    4    8     3     4    1.2712E+00  2.2567E-01   1.0456E+00  0.000E+00  0.000E+00  0.000E+00  1.06682E+03  1.364E+00  7.455E+00  6.709E-02  1.682E+00
   1    5    8     3     5    1.0456E+00  1.5790E-01   8.8768E-01  0.000E+00  0.000E+00  0.000E+00  1.06362E+03  1.164E+00  6.655E+00  4.991E-02  1.582E+00
   1    6    8     3     6    8.8768E-01  5.5980E-02   8.3170E-01  0.000E+00  0.000E+00  0.000E+00  1.06158E+03  1.036E+00  6.145E+00  1.844E-02  1.518E+00
   1    5   10     4     1    1.0000E+01  9.0919E-02   9.9091E+00  0.000E+00  0.000E+00  0.000E+00  1.07836E+03  6.368E-01  1.000E+01  2.500E-02  1.212E+00
   1    5    9     4     2    9.9091E+00  1.8158E-01   9.7275E+00  0.000E+00  0.000E+00  0.000E+00  1.07154E+03  6.315E-01  1.000E+01  5.000E-02  1.211E+00
   1    6    8     4     3    9.7275E+00  1.2689E-01   9.6006E+00  0.000E+00  0.000E+00  0.000E+00  1.06381E+03  6.256E-01  1.000E+01  3.500E-02  1.209E+00
   1    6    8     5     1    1.0432E+01  2.2686E-01   1.0205E+01  0.000E+00  0.000E+00  0.000E+00  1.05868E+03  6.790E-01  1.542E+01  6.166E-02  1.226E+00
   1    7    7     5     2    1.0205E+01  2.7894E-01   9.9265E+00  0.000E+00  0.000E+00  0.000E+00  1.05417E+03  6.732E-01  1.519E+01  7.594E-02  1.224E+00
   1    8    7     5     3    9.9265E+00  1.9221E-01   9.7343E+00  0.000E+00  0.000E+00  0.000E+00  1.04992E+03  6.676E-01  1.497E+01  5.241E-02  1.223E+00
   1    8    6     5     4    9.7343E+00  1.3577E-01   9.5985E+00  0.000E+00  0.000E+00  0.000E+00  1.04691E+03  6.637E-01  1.482E+01  3.706E-02  1.221E+00
   1    9    6     6     1    7.8783E+01  3.2569E-01   7.8457E+01  0.000E+00  0.000E+00  0.000E+00  1.04516E+03  2.428E+00  1.200E+01  6.000E-02  1.809E+00
   1   10    7     6     2    7.8457E+01  3.2533E-01   7.8132E+01  0.000E+00  0.000E+00  0.000E+00  1.04060E+03  2.422E+00  1.200E+01  6.000E-02  1.807E+00
   1   11    7     6     3    7.8132E+01  3.2497E-01   7.7807E+01  0.000E+00  0.000E+00  0.000E+00  1.03605E+03  2.416E+00  1.200E+01  6.000E-02  1.805E+00
   1   12    7     6     4    7.7807E+01  3.2461E-01   7.7482E+01  0.000E+00  0.000E+00  0.000E+00  1.03150E+03  2.410E+00  1.200E+01  6.000E-02  1.803E+00
   1   13    7     6     5    7.7482E+01  2.5721E-02   7.7457E+01  0.000E+00  0.000E+00  0.000E+00  1.02832E+03  2.407E+00  1.200E+01  2.400E-02  3.572E-01
   1   14    9     7     1    1.5000E+02  1.3316E+00   1.4867E+02  0.000E+00  0.000E+00  0.000E+00  1.03987E+03  2.288E+00  5.529E+01  5.593E-01  7.936E-01
   1   13    8     7     2    1.4867E+02  1.7983E+00   1.4687E+02  0.000E+00  0.000E+00  0.000E+00  1.03478E+03  2.279E+00  5.526E+01  6.148E-01  9.751E-01
   1   13    7     7     3    1.4687E+02  1.3661E+00   1.4550E+02  0.000E+00  0.000E+00  0.000E+00  1.02969E+03  2.271E+00  5.522E+01  5.585E-01  8.154E-01
   1   13    6     8     1    2.2296E+02  1.0158E+00   2.2194E+02  0.000E+00  0.000E+00  0.000E+00  1.02514E+03  3.265E+00  4.735E+01  4.825E-01  7.018E-01
   1   13    5     8     2    2.2194E+02  2.0175E-01   2.2174E+02  0.000E+00  0.000E+00  0.000E+00  1.01889E+03  3.262E+00  4.730E+01  4.820E-01  1.395E-01
   1   13    4     8     3    2.2174E+02 -1.9143E+00   2.2366E+02  0.000E+00  0.000E+00  0.000E+00  1.01264E+03  3.267E+00  4.737E+01  4.827E+00 -1.322E-01
   1   13    3     8     4    2.2366E+02 -3.0672E+00   2.2672E+02  0.000E+00  0.000E+00  0.000E+00  1.00641E+03  3.280E+00  4.757E+01  4.847E+00 -2.109E-01
   1   13    2     8     5    2.2672E+02 -2.5089E+00   2.2923E+02  0.000E+00  0.000E+00  0.000E+00  1.00017E+03  3.296E+00  4.779E+01  4.870E+00 -1.717E-01
   1   13    1     8     6    2.2923E+02 -1.9837E+00   2.3122E+02  0.000E+00  0.000E+00  0.000E+00  9.95183E+02  3.308E+00  4.796E+01  2.933E+00 -2.255E-01





UNSATURATED ZONE PACKAGE VOLUMETRIC BUDGET FOR  TIME STEP    30 STRESS PERIOD    8
  ------------------------------------------------------------------------------



     CUMULATIVE VOLUMES      L**3       RATES FOR THIS TIME STEP      L**3/T
     ------------------                 ------------------------

           IN:                                      IN:
           ---                                      ---
        INFILTRATION =   261931236.3387          INFILTRATION =          60.8175

          OUT:                                     OUT:
          ----                                     ----
              UZF ET =   261765561.0725                UZF ET =          60.8175
        UZF RECHARGE =       73224.0000          UZF RECHARGE =       0.0000E+00

            IN - OUT =       92451.2662              IN - OUT =       0.0000E+00

          STORAGE:                                 STORAGE:
          --------                                 --------
      STORAGE CHANGE =       92450.0117        STORAGE CHANGE =       2.0749E-17

 PERCENT DISCREPANCY IS DIFFERENCE BETWEEN IN-OUT MINUS CHANGE IN STORAGE
 DIVIDED BY THE AVERAGE OF IN AND OUT TIMES 100

 PERCENT DISCREPANCY =           0.00     PERCENT DISCREPANCY =           0.00






1
  VOLUMETRIC BUDGET FOR AGRICULTURAL FIELDS AT  END OF TIME STEP   30, STRESS PERIOD   8
  ------------------------------------------------------------------------------

     CUMULATIVE VOLUMES      L**3       RATES FOR THIS TIME STEP      L**3/T
     ------------------                 ------------------------

           IN:                                      IN:
           ---                                      ---
               AG WELLS  =   246255712.0000                 AG WELLS  =          59.9700
      DIVERSION SEGMENTS =           0.0000        DIVERSION SEGMENTS =           0.0000
       IRRIGATION PONDS  =           0.0000         IRRIGATION PONDS  =           0.0000
           GW IRRIGATION =           0.0000             GW IRRIGATION =           0.0000
           SW IRRIGATION =           0.0000             SW IRRIGATION =           0.0000
        SYSTEM LOSSES GW =           0.0000          SYSTEM LOSSES GW =           0.0000
        SYSTEM LOSSES SW =           0.0000          SYSTEM LOSSES SW =           0.0000

                TOTAL IN =   246255712.0000                  TOTAL IN =          59.9700

          OUT:                                     OUT:
          ----                                     ----
               AG WELLS  =           0.0000                 AG WELLS  =           0.0000
      DIVERSION SEGMENTS =           0.0000        DIVERSION SEGMENTS =           0.0000
       IRRIGATION PONDS  =           0.0000         IRRIGATION PONDS  =           0.0000
           GW IRRIGATION =   246255712.0000             GW IRRIGATION =          59.9700
           SW IRRIGATION =           0.0000             SW IRRIGATION =           0.0000
        SYSTEM LOSSES GW =           0.0000          SYSTEM LOSSES GW =           0.0000
        SYSTEM LOSSES SW =           0.0000          SYSTEM LOSSES SW =           0.0000

               TOTAL OUT =   246255712.0000                 TOTAL OUT =          59.9700

                IN - OUT =           0.0000                  IN - OUT =           0.0000

     PERCENT DISCREPANCY =           0.00         PERCENT DISCREPANCY =           0.00



1
  VOLUMETRIC BUDGET FOR ENTIRE MODEL AT END OF TIME STEP   30, STRESS PERIOD   8
  ------------------------------------------------------------------------------

     CUMULATIVE VOLUMES      L**3       RATES FOR THIS TIME STEP      L**3/T
     ------------------                 ------------------------

           IN:                                      IN:
           ---                                      ---
             STORAGE     =   250400048.0000               STORAGE     =          58.8954
       CONSTANT HEAD     =           0.0000         CONSTANT HEAD     =           0.0000
     HEAD DEP BOUNDS     =     5279910.5000       HEAD DEP BOUNDS     =           0.2855
      STREAM LEAKAGE     =   237080192.0000        STREAM LEAKAGE     =          13.2565
        UZF RECHARGE     =       73223.9531          UZF RECHARGE     =           0.0000
               GW ET     =           0.0000                 GW ET     =           0.0000
     SURFACE LEAKAGE     =           0.0000       SURFACE LEAKAGE     =           0.0000
           AG WELLS      =           0.0000             AG WELLS      =           0.0000

                TOTAL IN =   492833344.0000                  TOTAL IN =          72.4373

          OUT:                                     OUT:
          ----                                     ----
             STORAGE     =    45231384.0000               STORAGE     =           1.1626
       CONSTANT HEAD     =           0.0000         CONSTANT HEAD     =           0.0000
     HEAD DEP BOUNDS     =     5460587.0000       HEAD DEP BOUNDS     =           0.2986
      STREAM LEAKAGE     =   185554448.0000        STREAM LEAKAGE     =           9.4741
        UZF RECHARGE     =           0.0000          UZF RECHARGE     =           0.0000
               GW ET     =    10335279.0000                 GW ET     =           1.5319
     SURFACE LEAKAGE     =           0.0000       SURFACE LEAKAGE     =           0.0000
           AG WELLS      =   246255712.0000             AG WELLS      =          59.9700

               TOTAL OUT =   492837408.0000                 TOTAL OUT =          72.4373

                IN - OUT =       -4064.0000                  IN - OUT =       3.0518E-05

     PERCENT DISCREPANCY =          -0.00         PERCENT DISCREPANCY =           0.00






         TIME SUMMARY AT END OF TIME STEP   30 IN STRESS PERIOD    8
                    SECONDS     MINUTES      HOURS       DAYS        YEARS
                    -----------------------------------------------------------
   TIME STEP LENGTH  87667.      1461.1      24.352      1.0147     2.77799E-03
 STRESS PERIOD TIME 2.63000E+06  43833.      730.56      30.440     8.33397E-02
         TOTAL TIME 1.84964E+07 3.08274E+05  5137.9      214.08     0.58612    
1
1
                            STRESS PERIOD NO.    9, LENGTH =   2630000.    
                            -----------------------------------------------

                              NUMBER OF TIME STEPS =    30

                               MULTIPLIER FOR DELT =     1.000

                            INITIAL TIME STEP SIZE =   87666.66    

 REUSING NON-PARAMETER GHB CELLS FROM LAST STRESS PERIOD

      2 GHB CELLS

 REUSING STREAM SEGMENT DATA FROM LAST STRESS PERIOD



            AREAL INFILTRATION RATE
 READING ON UNIT   19 WITH FORMAT: (FREE)              

            1           2           3           4           5           6           7           8           9          10
 ........................................................................................................................
   1   1.0000E-10  2.0000E-10   0.000       0.000       0.000       0.000       0.000       0.000       0.000       0.000    
   2   2.0000E-10  1.0000E-10  2.0000E-10   0.000       0.000      8.0000E-10  8.0000E-10  5.0000E-10   0.000       0.000    
   3    0.000      5.0000E-10  1.0000E-10  1.0000E-10  8.0000E-10  8.0000E-10  5.0000E-10  5.0000E-10   0.000       0.000    
   4   8.0000E-10  5.0000E-10  1.0000E-10  1.0000E-10  1.0000E-10  1.0000E-10  1.0000E-10  1.0000E-10  2.0000E-10   0.000    
   5   8.0000E-10  5.0000E-10  1.0000E-10  1.0000E-10  1.0000E-10  1.0000E-10  1.0000E-10  1.0000E-10  1.0000E-10  1.0000E-10
   6   8.0000E-10  5.0000E-10  5.0000E-10  2.0000E-10  2.0000E-10  1.0000E-10  1.0000E-10  1.0000E-10  1.0000E-10  5.0000E-10
   7   8.0000E-10  5.0000E-10  5.0000E-10  2.0000E-10  2.0000E-10  1.0000E-10  1.0000E-10  2.0000E-10  2.0000E-10   0.000    
   8    0.000      5.0000E-10  5.0000E-10  2.0000E-10  2.0000E-10  1.0000E-10  1.0000E-10  2.0000E-10  5.0000E-10   0.000    
   9    0.000      5.0000E-10  5.0000E-10  2.0000E-10  2.0000E-10  1.0000E-10  1.0000E-10  2.0000E-10  5.0000E-10   0.000    
  10    0.000      5.0000E-10  5.0000E-10  2.0000E-10  2.0000E-10  1.0000E-10  1.0000E-10  2.0000E-10  5.0000E-10  8.0000E-10
  11    0.000      1.0000E-10  1.0000E-10  1.0000E-10  1.0000E-10  1.0000E-10  1.0000E-10  2.0000E-10  5.0000E-10   0.000    
  12   1.0000E-10  1.0000E-10  1.0000E-10  1.0000E-10  1.0000E-10  1.0000E-10  1.0000E-10  1.0000E-10  2.0000E-10   0.000    
  13   1.0000E-10  1.0000E-10  2.0000E-10  2.0000E-10  2.0000E-10  2.0000E-10  2.0000E-10  1.0000E-10  1.0000E-10   0.000    
  14    0.000      2.0000E-10  5.0000E-10  5.0000E-10  5.0000E-10  5.0000E-10  5.0000E-10  2.0000E-10  1.0000E-10   0.000    
  15    0.000       0.000      8.0000E-10  8.0000E-10  8.0000E-10  8.0000E-10   0.000       0.000       0.000       0.000    

                  ET RATE =  3.250000E-07

 USING ET EXTINCTION DEPTH FROM PREVIOUS STRESS PERIOD. CURRENT PERIOD IS:       9

 USING EXTINCTION WATER CONTENT FROM PREVIOUS STRESS PERIOD. CURRENT PERIOD IS:       9

 USING AIR ENTRY PRESSURE FROM PREVIOUS STRESS PERIOD. CURRENT PERIOD IS:       9

 USING ROOT PRESSURE HEAD FROM PREVIOUS STRESS PERIOD. CURRENT PERIOD IS:       9

 USING ROOT ACTIVITY FROM PREVIOUS STRESS PERIOD. CURRENT PERIOD IS:       9

 PROCESSING AG STRESS PERIOD DATA

 READING AG STRESS PERIOD DATA

 READING IRRIGATION WELL

 NO IRRPOND OR REUSING IRRPOND DATA FROM LAST STRESS PERIOD

 END PROCESSING AG STRESS PERIOD DATA OPTIONS
 
 SOLVING FOR HEAD 
                                                   Max.-Head-Change                         Max.-Flux-Residual
  Residual-Control   Outer-Iter.   Inner-Iter.     Column Row Layer    Maximum-Head-Change  Column Row Layer    Maximum-Flux-Residual          L2-NORM 
          0                 1           2             4    7     1      -0.9192022653E-01       4    7    1        -0.4834097690E+01      0.1092413574E+02
          0                 2           2             4    7     1       0.8941138216E-02       4    7    1         0.4833967124E+00      0.1092373128E+01
          0                 3           2             4    7     1      -0.6088602558E-03       4    7    1        -0.3383790803E-01      0.7646337747E-01
          0                 4           1             4    7     1       0.2422711121E-04       4    7    1         0.1383971804E-02      0.3127179468E-02

    ------------------------------------------------
       NWT REQUIRED            4 OUTER ITERATIONS 
       AND A TOTAL OF          7 INNER ITERATIONS.
    ------------------------------------------------

 NO OUTPUT CONTROL FOR STRESS PERIOD    9   TIME STEP    1
 
 SOLVING FOR HEAD 
                                                   Max.-Head-Change                         Max.-Flux-Residual
  Residual-Control   Outer-Iter.   Inner-Iter.     Column Row Layer    Maximum-Head-Change  Column Row Layer    Maximum-Flux-Residual          L2-NORM 
          0                 1           2             5    8     1       0.9683235765E-01       5    8    1         0.5274807201E+01      0.1266251811E+02
          0                 2           2             5    7     1      -0.1576904577E+00       5    8    1        -0.8647441119E+01      0.2100071966E+02
          0                 3           2             5    7     1       0.1073802725E-01       5    8    1         0.6053152659E+00      0.1470035246E+01
          0                 4           2             5    7     1      -0.4272766655E-03       5    8    1        -0.2475745611E-01      0.6012459090E-01
          0                 5           1             5    7     1       0.5268512958E-05       5    8    1         0.3137532515E-03      0.7619641227E-03

    ------------------------------------------------
       NWT REQUIRED            5 OUTER ITERATIONS 
       AND A TOTAL OF          9 INNER ITERATIONS.
    ------------------------------------------------

 NO OUTPUT CONTROL FOR STRESS PERIOD    9   TIME STEP    2
 
 SOLVING FOR HEAD 
                                                   Max.-Head-Change                         Max.-Flux-Residual
  Residual-Control   Outer-Iter.   Inner-Iter.     Column Row Layer    Maximum-Head-Change  Column Row Layer    Maximum-Flux-Residual          L2-NORM 
          0                 1           2             5    8     1       0.9685677274E-01       5    8    1         0.5274668314E+01      0.1270272534E+02
          0                 2           2             5    7     1      -0.1577534090E+00       5    8    1        -0.8647427222E+01      0.2100670814E+02
          0                 3           2             5    7     1       0.1074178311E-01       5    8    1         0.6052847479E+00      0.1470382059E+01
          0                 4           2             5    7     1      -0.4274261170E-03       5    8    1        -0.2475620783E-01      0.6013877614E-01
          0                 5           1             5    7     1       0.5270355602E-05       5    8    1         0.3137374076E-03      0.7621443230E-03

    ------------------------------------------------
       NWT REQUIRED            5 OUTER ITERATIONS 
       AND A TOTAL OF          9 INNER ITERATIONS.
    ------------------------------------------------

 NO OUTPUT CONTROL FOR STRESS PERIOD    9   TIME STEP    3
 
 SOLVING FOR HEAD 
                                                   Max.-Head-Change                         Max.-Flux-Residual
  Residual-Control   Outer-Iter.   Inner-Iter.     Column Row Layer    Maximum-Head-Change  Column Row Layer    Maximum-Flux-Residual          L2-NORM 
          0                 1           2             5    8     1       0.9690531846E-01       5    8    1         0.5275917515E+01      0.1274411508E+02
          0                 2           2             5    7     1      -0.1578146498E+00       5    8    1        -0.8647552132E+01      0.2101267490E+02
          0                 3           2             5    7     1       0.1074595287E-01       5    8    1         0.6052935089E+00      0.1470799724E+01
          0                 4           2             5    7     1      -0.4275920382E-03       5    8    1        -0.2475656607E-01      0.6015586130E-01
          0                 5           1             5    7     1       0.5272401553E-05       5    8    1         0.3137419612E-03      0.7623601280E-03

    ------------------------------------------------
       NWT REQUIRED            5 OUTER ITERATIONS 
       AND A TOTAL OF          9 INNER ITERATIONS.
    ------------------------------------------------

 NO OUTPUT CONTROL FOR STRESS PERIOD    9   TIME STEP    4
 
 SOLVING FOR HEAD 
                                                   Max.-Head-Change                         Max.-Flux-Residual
  Residual-Control   Outer-Iter.   Inner-Iter.     Column Row Layer    Maximum-Head-Change  Column Row Layer    Maximum-Flux-Residual          L2-NORM 
          0                 1           2             5    8     1       0.9697600329E-01       5    8    1         0.5278440301E+01      0.1278644696E+02
          0                 2           2             4    7     1      -0.1578973514E+00       5    8    1        -0.8647804398E+01      0.2101861609E+02
          0                 3           2             4    7     1       0.1075157772E-01       5    8    1         0.6053111836E+00      0.1471215597E+01
          0                 4           2             4    7     1      -0.4278158624E-03       5    8    1        -0.2475728890E-01      0.6017287001E-01
          0                 5           1             4    7     1       0.5275154094E-05       5    8    1         0.3137511096E-03      0.7625758754E-03

    ------------------------------------------------
       NWT REQUIRED            5 OUTER ITERATIONS 
       AND A TOTAL OF          9 INNER ITERATIONS.
    ------------------------------------------------

 NO OUTPUT CONTROL FOR STRESS PERIOD    9   TIME STEP    5
 
 SOLVING FOR HEAD 
                                                   Max.-Head-Change                         Max.-Flux-Residual
  Residual-Control   Outer-Iter.   Inner-Iter.     Column Row Layer    Maximum-Head-Change  Column Row Layer    Maximum-Flux-Residual          L2-NORM 
          0                 1           2             5    8     1       0.9706633420E-01       5    8    1         0.5282095180E+01      0.1282949799E+02
          0                 2           2             4    7     1      -0.1579930140E+00       5    8    1        -0.8648169872E+01      0.2102452538E+02
          0                 3           2             4    7     1       0.1075809125E-01       5    8    1         0.6053367817E+00      0.1471629236E+01
          0                 4           2             4    7     1      -0.4280750452E-03       5    8    1        -0.2475833580E-01      0.6018979167E-01
          0                 5           1             4    7     1       0.5278350101E-05       5    8    1         0.3137643880E-03      0.7627898569E-03

    ------------------------------------------------
       NWT REQUIRED            5 OUTER ITERATIONS 
       AND A TOTAL OF          9 INNER ITERATIONS.
    ------------------------------------------------

 NO OUTPUT CONTROL FOR STRESS PERIOD    9   TIME STEP    6
 
 SOLVING FOR HEAD 
                                                   Max.-Head-Change                         Max.-Flux-Residual
  Residual-Control   Outer-Iter.   Inner-Iter.     Column Row Layer    Maximum-Head-Change  Column Row Layer    Maximum-Flux-Residual          L2-NORM 
          0                 1           2             5    8     1       0.9717460649E-01       5    8    1         0.5286784245E+01      0.1287314956E+02
          0                 2           2             4    7     1      -0.1580862423E+00       5    8    1        -0.8648638762E+01      0.2103040120E+02
          0                 3           2             4    7     1       0.1076443904E-01       5    8    1         0.6053696179E+00      0.1472040522E+01
          0                 4           2             4    7     1      -0.4283276332E-03       5    8    1        -0.2475967873E-01      0.6020661208E-01
          0                 5           1             4    7     1       0.5281464561E-05       5    8    1         0.3137814053E-03      0.7630030436E-03

    ------------------------------------------------
       NWT REQUIRED            5 OUTER ITERATIONS 
       AND A TOTAL OF          9 INNER ITERATIONS.
    ------------------------------------------------

 NO OUTPUT CONTROL FOR STRESS PERIOD    9   TIME STEP    7
 
 SOLVING FOR HEAD 
                                                   Max.-Head-Change                         Max.-Flux-Residual
  Residual-Control   Outer-Iter.   Inner-Iter.     Column Row Layer    Maximum-Head-Change  Column Row Layer    Maximum-Flux-Residual          L2-NORM 
          0                 1           2             5    8     1       0.9729900057E-01       5    8    1         0.5292403441E+01      0.1291725376E+02
          0                 2           2             4    7     1      -0.1581771399E+00       5    8    1        -0.8649200665E+01      0.2103623956E+02
          0                 3           2             4    7     1       0.1077062814E-01       5    8    1         0.6054089640E+00      0.1472449189E+01
          0                 4           2             4    7     1      -0.4285739067E-03       5    8    1        -0.2476128791E-01      0.6022332610E-01
          0                 5           1             4    7     1       0.5284501508E-05       5    8    1         0.3138017917E-03      0.7632151978E-03

    ------------------------------------------------
       NWT REQUIRED            5 OUTER ITERATIONS 
       AND A TOTAL OF          9 INNER ITERATIONS.
    ------------------------------------------------

 NO OUTPUT CONTROL FOR STRESS PERIOD    9   TIME STEP    8
 
 SOLVING FOR HEAD 
                                                   Max.-Head-Change                         Max.-Flux-Residual
  Residual-Control   Outer-Iter.   Inner-Iter.     Column Row Layer    Maximum-Head-Change  Column Row Layer    Maximum-Flux-Residual          L2-NORM 
          0                 1           2             5    8     1       0.9743771762E-01       5    8    1         0.5298850599E+01      0.1296171437E+02
          0                 2           2             4    7     1      -0.1582657681E+00       5    8    1        -0.8649845363E+01      0.2104203753E+02
          0                 3           2             4    7     1       0.1077666272E-01       5    8    1         0.6054541049E+00      0.1472855029E+01
          0                 4           2             4    7     1      -0.4288140310E-03       5    8    1        -0.2476313414E-01      0.6023993494E-01
          0                 5           1             4    7     1       0.5287461948E-05       5    8    1         0.3138251823E-03      0.7634291983E-03

    ------------------------------------------------
       NWT REQUIRED            5 OUTER ITERATIONS 
       AND A TOTAL OF          9 INNER ITERATIONS.
    ------------------------------------------------

 NO OUTPUT CONTROL FOR STRESS PERIOD    9   TIME STEP    9
 
 SOLVING FOR HEAD 
                                                   Max.-Head-Change                         Max.-Flux-Residual
  Residual-Control   Outer-Iter.   Inner-Iter.     Column Row Layer    Maximum-Head-Change  Column Row Layer    Maximum-Flux-Residual          L2-NORM 
          0                 1           2             5    8     1       0.9758954284E-01       5    8    1         0.5306055958E+01      0.1300644529E+02
          0                 2           2             4    7     1      -0.1583522248E+00       5    8    1        -0.8650565881E+01      0.2104779372E+02
          0                 3           2             4    7     1       0.1078254946E-01       5    8    1         0.6055045523E+00      0.1473257941E+01
          0                 4           2             4    7     1      -0.4290482732E-03       5    8    1        -0.2476519740E-01      0.6025640496E-01
          0                 5           1             4    7     1       0.5290350250E-05       5    8    1         0.3138513480E-03      0.7636342073E-03

    ------------------------------------------------
       NWT REQUIRED            5 OUTER ITERATIONS 
       AND A TOTAL OF          9 INNER ITERATIONS.
    ------------------------------------------------

 NO OUTPUT CONTROL FOR STRESS PERIOD    9   TIME STEP   10
 
 SOLVING FOR HEAD 
                                                   Max.-Head-Change                         Max.-Flux-Residual
  Residual-Control   Outer-Iter.   Inner-Iter.     Column Row Layer    Maximum-Head-Change  Column Row Layer    Maximum-Flux-Residual          L2-NORM 
          0                 1           2             5    8     1       0.9775295980E-01       5    8    1         0.5313933035E+01      0.1305135340E+02
          0                 2           2             4    7     1      -0.1584365785E+00       5    8    1        -0.8651353570E+01      0.2105350444E+02
          0                 3           2             4    7     1       0.1078829301E-01       5    8    1         0.6055597009E+00      0.1473657672E+01
          0                 4           2             4    7     1      -0.4292768174E-03       5    8    1        -0.2476745292E-01      0.6027275493E-01
          0                 5           1             4    7     1       0.5293168543E-05       5    8    1         0.3138799279E-03      0.7638726924E-03

    ------------------------------------------------
       NWT REQUIRED            5 OUTER ITERATIONS 
       AND A TOTAL OF          9 INNER ITERATIONS.
    ------------------------------------------------

 NO OUTPUT CONTROL FOR STRESS PERIOD    9   TIME STEP   11
 
 SOLVING FOR HEAD 
                                                   Max.-Head-Change                         Max.-Flux-Residual
  Residual-Control   Outer-Iter.   Inner-Iter.     Column Row Layer    Maximum-Head-Change  Column Row Layer    Maximum-Flux-Residual          L2-NORM 
          0                 1           2             5    8     1       0.9792671866E-01       5    8    1         0.5322411044E+01      0.1309639150E+02
          0                 2           2             4    7     1      -0.1585189077E+00       5    8    1        -0.8652201352E+01      0.2105916991E+02
          0                 3           2             4    7     1       0.1079389871E-01       5    8    1         0.6056190553E+00      0.1474054236E+01
          0                 4           2             4    7     1      -0.4294998765E-03       5    8    1        -0.2476988047E-01      0.6028897550E-01
          0                 5           1             4    7     1       0.5295918956E-05       5    8    1         0.3139106811E-03      0.7640474315E-03

    ------------------------------------------------
       NWT REQUIRED            5 OUTER ITERATIONS 
       AND A TOTAL OF          9 INNER ITERATIONS.
    ------------------------------------------------

 NO OUTPUT CONTROL FOR STRESS PERIOD    9   TIME STEP   12
 
 SOLVING FOR HEAD 
                                                   Max.-Head-Change                         Max.-Flux-Residual
  Residual-Control   Outer-Iter.   Inner-Iter.     Column Row Layer    Maximum-Head-Change  Column Row Layer    Maximum-Flux-Residual          L2-NORM 
          0                 1           2             5    8     1       0.9810969327E-01       5    8    1         0.5331425190E+01      0.1314148141E+02
          0                 2           2             4    7     1      -0.1585992752E+00       5    8    1        -0.8653102748E+01      0.2106478642E+02
          0                 3           2             4    7     1       0.1079937086E-01       5    8    1         0.6056821620E+00      0.1474447370E+01
          0                 4           2             4    7     1      -0.4297176210E-03       5    8    1        -0.2477246150E-01      0.6030505422E-01
          0                 5           1             4    7     1       0.5298603839E-05       5    8    1         0.3139433966E-03      0.7642514843E-03

    ------------------------------------------------
       NWT REQUIRED            5 OUTER ITERATIONS 
       AND A TOTAL OF          9 INNER ITERATIONS.
    ------------------------------------------------

 NO OUTPUT CONTROL FOR STRESS PERIOD    9   TIME STEP   13
 
 SOLVING FOR HEAD 
                                                   Max.-Head-Change                         Max.-Flux-Residual
  Residual-Control   Outer-Iter.   Inner-Iter.     Column Row Layer    Maximum-Head-Change  Column Row Layer    Maximum-Flux-Residual          L2-NORM 
          0                 1           2             5    8     1       0.9830112540E-01       5    8    1         0.5340932744E+01      0.1318657133E+02
          0                 2           2             4    7     1      -0.1586777671E+00       5    8    1        -0.8654053484E+01      0.2107035347E+02
          0                 3           2             4    7     1       0.1080471530E-01       5    8    1         0.6057487219E+00      0.1474837044E+01
          0                 4           2             4    7     1      -0.4299302842E-03       5    8    1        -0.2477518376E-01      0.6032099218E-01
          0                 5           1             4    7     1       0.5301225883E-05       5    8    1         0.3139778885E-03      0.7644527728E-03

    ------------------------------------------------
       NWT REQUIRED            5 OUTER ITERATIONS 
       AND A TOTAL OF          9 INNER ITERATIONS.
    ------------------------------------------------

 NO OUTPUT CONTROL FOR STRESS PERIOD    9   TIME STEP   14
 
 SOLVING FOR HEAD 
                                                   Max.-Head-Change                         Max.-Flux-Residual
  Residual-Control   Outer-Iter.   Inner-Iter.     Column Row Layer    Maximum-Head-Change  Column Row Layer    Maximum-Flux-Residual          L2-NORM 
          0                 1           2             5    8     1       0.9849978840E-01       5    8    1         0.5350863077E+01      0.1323160874E+02
          0                 2           2             4    7     1      -0.1587544274E+00       5    8    1        -0.8655046499E+01      0.2107587017E+02
          0                 3           2             4    7     1       0.1080993503E-01       5    8    1         0.6058182407E+00      0.1475223193E+01
          0                 4           2             4    7     1      -0.4301379847E-03       5    8    1        -0.2477802705E-01      0.6033678579E-01
          0                 5           1             4    7     1       0.5303786878E-05       5    8    1         0.3140139277E-03      0.7646531460E-03

    ------------------------------------------------
       NWT REQUIRED            5 OUTER ITERATIONS 
       AND A TOTAL OF          9 INNER ITERATIONS.
    ------------------------------------------------

 NO OUTPUT CONTROL FOR STRESS PERIOD    9   TIME STEP   15
 
 SOLVING FOR HEAD 
                                                   Max.-Head-Change                         Max.-Flux-Residual
  Residual-Control   Outer-Iter.   Inner-Iter.     Column Row Layer    Maximum-Head-Change  Column Row Layer    Maximum-Flux-Residual          L2-NORM 
          0                 1           2             5    8     1       0.9870497073E-01       5    8    1         0.5361176082E+01      0.1327654948E+02
          0                 2           2             4    7     1      -0.1588293371E+00       5    8    1        -0.8656077781E+01      0.2108133536E+02
          0                 3           2             4    7     1       0.1081503557E-01       5    8    1         0.6058904377E+00      0.1475605737E+01
          0                 4           2             4    7     1      -0.4303409427E-03       5    8    1        -0.2478097988E-01      0.6035243230E-01
          0                 5           1             4    7     1       0.5306289737E-05       5    8    1         0.3140513561E-03      0.7648512060E-03

    ------------------------------------------------
       NWT REQUIRED            5 OUTER ITERATIONS 
       AND A TOTAL OF          9 INNER ITERATIONS.
    ------------------------------------------------

 NO OUTPUT CONTROL FOR STRESS PERIOD    9   TIME STEP   16
 
 SOLVING FOR HEAD 
                                                   Max.-Head-Change                         Max.-Flux-Residual
  Residual-Control   Outer-Iter.   Inner-Iter.     Column Row Layer    Maximum-Head-Change  Column Row Layer    Maximum-Flux-Residual          L2-NORM 
          0                 1           2             5    8     1       0.9891602806E-01       5    8    1         0.5371834866E+01      0.1332136170E+02
          0                 2           2             4    7     1      -0.1589025606E+00       5    8    1        -0.8657143642E+01      0.2108674824E+02
          0                 3           2             4    7     1       0.1082002132E-01       5    8    1         0.6059650546E+00      0.1475984619E+01
          0                 4           2             4    7     1      -0.4305393324E-03       5    8    1        -0.2478403170E-01      0.6036792873E-01
          0                 5           1             4    7     1       0.5308735693E-05       5    8    1         0.3140900330E-03      0.7650477553E-03

    ------------------------------------------------
       NWT REQUIRED            5 OUTER ITERATIONS 
       AND A TOTAL OF          9 INNER ITERATIONS.
    ------------------------------------------------

 NO OUTPUT CONTROL FOR STRESS PERIOD    9   TIME STEP   17
 
 SOLVING FOR HEAD 
                                                   Max.-Head-Change                         Max.-Flux-Residual
  Residual-Control   Outer-Iter.   Inner-Iter.     Column Row Layer    Maximum-Head-Change  Column Row Layer    Maximum-Flux-Residual          L2-NORM 
          0                 1           2             5    8     1       0.9913195398E-01       5    8    1         0.5382782546E+01      0.1336599373E+02
          0                 2           2             4    7     1      -0.1589741471E+00       5    8    1        -0.8658238392E+01      0.2109210732E+02
          0                 3           2             4    7     1       0.1082489559E-01       5    8    1         0.6060416934E+00      0.1476359735E+01
          0                 4           2             4    7     1      -0.4307332871E-03       5    8    1        -0.2478716619E-01      0.6038327095E-01
          0                 5           1             4    7     1       0.5311127546E-05       5    8    1         0.3141297520E-03      0.7652428536E-03

    ------------------------------------------------
       NWT REQUIRED            5 OUTER ITERATIONS 
       AND A TOTAL OF          9 INNER ITERATIONS.
    ------------------------------------------------

 NO OUTPUT CONTROL FOR STRESS PERIOD    9   TIME STEP   18
 
 SOLVING FOR HEAD 
                                                   Max.-Head-Change                         Max.-Flux-Residual
  Residual-Control   Outer-Iter.   Inner-Iter.     Column Row Layer    Maximum-Head-Change  Column Row Layer    Maximum-Flux-Residual          L2-NORM 
          0                 1           2             5    8     1       0.9935238964E-01       5    8    1         0.5393998249E+01      0.1341042847E+02
          0                 2           2             4    7     1      -0.1590441561E+00       5    8    1        -0.8659359946E+01      0.2109741282E+02
          0                 3           2             4    7     1       0.1082966247E-01       5    8    1         0.6061202079E+00      0.1476731101E+01
          0                 4           2             4    7     1      -0.4309229674E-03       5    8    1        -0.2479037741E-01      0.6039846028E-01
          0                 5           1             4    7     1       0.5313466192E-05       5    8    1         0.3141704431E-03      0.7654351439E-03

    ------------------------------------------------
       NWT REQUIRED            5 OUTER ITERATIONS 
       AND A TOTAL OF          9 INNER ITERATIONS.
    ------------------------------------------------

 NO OUTPUT CONTROL FOR STRESS PERIOD    9   TIME STEP   19
 
 SOLVING FOR HEAD 
                                                   Max.-Head-Change                         Max.-Flux-Residual
  Residual-Control   Outer-Iter.   Inner-Iter.     Column Row Layer    Maximum-Head-Change  Column Row Layer    Maximum-Flux-Residual          L2-NORM 
          0                 1           2             5    8     1       0.9957660070E-01       5    8    1         0.5405439893E+01      0.1345462545E+02
          0                 2           2             4    7     1      -0.1591126321E+00       5    8    1        -0.8660504094E+01      0.2110266362E+02
          0                 3           2             4    7     1       0.1083432496E-01       5    8    1         0.6062003036E+00      0.1477098637E+01
          0                 4           2             4    7     1      -0.4311084948E-03       5    8    1        -0.2479365329E-01      0.6041349239E-01
          0                 5           1             4    7     1       0.5315753983E-05       5    8    1         0.3142119781E-03      0.7656261813E-03

    ------------------------------------------------
       NWT REQUIRED            5 OUTER ITERATIONS 
       AND A TOTAL OF          9 INNER ITERATIONS.
    ------------------------------------------------

 NO OUTPUT CONTROL FOR STRESS PERIOD    9   TIME STEP   20
 
 SOLVING FOR HEAD 
                                                   Max.-Head-Change                         Max.-Flux-Residual
  Residual-Control   Outer-Iter.   Inner-Iter.     Column Row Layer    Maximum-Head-Change  Column Row Layer    Maximum-Flux-Residual          L2-NORM 
          0                 1           2             5    8     1       0.9980405079E-01       5    8    1         0.5417077235E+01      0.1349857067E+02
          0                 2           2             4    7     1      -0.1591796436E+00       5    8    1        -0.8661667812E+01      0.2110786027E+02
          0                 3           2             4    7     1       0.1083888774E-01       5    8    1         0.6062817688E+00      0.1477462385E+01
          0                 4           2             4    7     1      -0.4312900541E-03       5    8    1        -0.2479698520E-01      0.6042837009E-01
          0                 5           1             4    7     1       0.5317992375E-05       5    8    1         0.3142541843E-03      0.7658140064E-03

    ------------------------------------------------
       NWT REQUIRED            5 OUTER ITERATIONS 
       AND A TOTAL OF          9 INNER ITERATIONS.
    ------------------------------------------------

 NO OUTPUT CONTROL FOR STRESS PERIOD    9   TIME STEP   21
 
 SOLVING FOR HEAD 
                                                   Max.-Head-Change                         Max.-Flux-Residual
  Residual-Control   Outer-Iter.   Inner-Iter.     Column Row Layer    Maximum-Head-Change  Column Row Layer    Maximum-Flux-Residual          L2-NORM 
          0                 1           2             5    8     1       0.1000343913E+00       5    8    1         0.5428890288E+01      0.1354223585E+02
          0                 2           2             4    7     1      -0.1592452298E+00       5    8    1        -0.8662849103E+01      0.2111300159E+02
          0                 3           2             4    7     1       0.1084335348E-01       5    8    1         0.6063644637E+00      0.1477822258E+01
          0                 4           2             4    7     1      -0.4314677521E-03       5    8    1        -0.2480036740E-01      0.6044308875E-01
          0                 5           1             4    7     1       0.5320183609E-05       5    8    1         0.3142970561E-03      0.7660025992E-03

    ------------------------------------------------
       NWT REQUIRED            5 OUTER ITERATIONS 
       AND A TOTAL OF          9 INNER ITERATIONS.
    ------------------------------------------------

 NO OUTPUT CONTROL FOR STRESS PERIOD    9   TIME STEP   22
 
 SOLVING FOR HEAD 
                                                   Max.-Head-Change                         Max.-Flux-Residual
  Residual-Control   Outer-Iter.   Inner-Iter.     Column Row Layer    Maximum-Head-Change  Column Row Layer    Maximum-Flux-Residual          L2-NORM 
          0                 1           2             5    8     1       0.1002670255E+00       5    8    1         0.5440845336E+01      0.1358561566E+02
          0                 2           2             4    7     1      -0.1593094419E+00       5    8    1        -0.8664044593E+01      0.2111808892E+02
          0                 3           2             4    7     1       0.1084772566E-01       5    8    1         0.6064481529E+00      0.1478178353E+01
          0                 4           2             4    7     1      -0.4316417273E-03       5    8    1        -0.2480379028E-01      0.6045765331E-01
          0                 5           1             4    7     1       0.5322328358E-05       5    8    1         0.3143404324E-03      0.7661849087E-03

    ------------------------------------------------
       NWT REQUIRED            5 OUTER ITERATIONS 
       AND A TOTAL OF          9 INNER ITERATIONS.
    ------------------------------------------------

 NO OUTPUT CONTROL FOR STRESS PERIOD    9   TIME STEP   23
 
 SOLVING FOR HEAD 
                                                   Max.-Head-Change                         Max.-Flux-Residual
  Residual-Control   Outer-Iter.   Inner-Iter.     Column Row Layer    Maximum-Head-Change  Column Row Layer    Maximum-Flux-Residual          L2-NORM 
          0                 1           2             5    8     1       0.1005017164E+00       5    8    1         0.5452920797E+01      0.1362866399E+02
          0                 2           2             4    7     1      -0.1593724074E+00       5    8    1        -0.8665016130E+01      0.2112311952E+02
          0                 3           2             4    7     1       0.1085201298E-01       5    8    1         0.6065161647E+00      0.1478530477E+01
          0                 4           2             4    7     1      -0.4318123258E-03       5    8    1        -0.2480657195E-01      0.6047205548E-01
          0                 5           1             4    7     1       0.5324432220E-05       5    8    1         0.3143756799E-03      0.7663847997E-03

    ------------------------------------------------
       NWT REQUIRED            5 OUTER ITERATIONS 
       AND A TOTAL OF          9 INNER ITERATIONS.
    ------------------------------------------------

 NO OUTPUT CONTROL FOR STRESS PERIOD    9   TIME STEP   24
 
 SOLVING FOR HEAD 
                                                   Max.-Head-Change                         Max.-Flux-Residual
  Residual-Control   Outer-Iter.   Inner-Iter.     Column Row Layer    Maximum-Head-Change  Column Row Layer    Maximum-Flux-Residual          L2-NORM 
          0                 1           2             5    8     1       0.1007479813E+00       5    8    1         0.5465390713E+01      0.1367137748E+02
          0                 2           2             4    7     1      -0.1594339234E+00       5    8    1        -0.8666499222E+01      0.2112809628E+02
          0                 3           2             4    7     1       0.1085620157E-01       5    8    1         0.6066199790E+00      0.1478878832E+01
          0                 4           2             4    7     1      -0.4319789955E-03       5    8    1        -0.2481081798E-01      0.6048630329E-01
          0                 5           1             4    7     1       0.5326487468E-05       5    8    1         0.3144294878E-03      0.7665480909E-03

    ------------------------------------------------
       NWT REQUIRED            5 OUTER ITERATIONS 
       AND A TOTAL OF          9 INNER ITERATIONS.
    ------------------------------------------------

 NO OUTPUT CONTROL FOR STRESS PERIOD    9   TIME STEP   25
 
 SOLVING FOR HEAD 
                                                   Max.-Head-Change                         Max.-Flux-Residual
  Residual-Control   Outer-Iter.   Inner-Iter.     Column Row Layer    Maximum-Head-Change  Column Row Layer    Maximum-Flux-Residual          L2-NORM 
          0                 1           2             5    8     1       0.1009911436E+00       5    8    1         0.5477968813E+01      0.1371372952E+02
          0                 2           2             4    7     1      -0.1594942598E+00       5    8    1        -0.8667757023E+01      0.2113301711E+02
          0                 3           2             4    7     1       0.1086030987E-01       5    8    1         0.6067080273E+00      0.1479223272E+01
          0                 4           2             4    7     1      -0.4321424705E-03       5    8    1        -0.2481441915E-01      0.6050039093E-01
          0                 5           1             4    7     1       0.5328503063E-05       5    8    1         0.3144751283E-03      0.7667263518E-03

    ------------------------------------------------
       NWT REQUIRED            5 OUTER ITERATIONS 
       AND A TOTAL OF          9 INNER ITERATIONS.
    ------------------------------------------------

 NO OUTPUT CONTROL FOR STRESS PERIOD    9   TIME STEP   26
 
 SOLVING FOR HEAD 
                                                   Max.-Head-Change                         Max.-Flux-Residual
  Residual-Control   Outer-Iter.   Inner-Iter.     Column Row Layer    Maximum-Head-Change  Column Row Layer    Maximum-Flux-Residual          L2-NORM 
          0                 1           2             5    8     1       0.1012351112E+00       5    8    1         0.5490604081E+01      0.1375574036E+02
          0                 2           2             4    7     1      -0.1595533856E+00       5    8    1        -0.8669020541E+01      0.2113788407E+02
          0                 3           2             4    7     1       0.1086433574E-01       5    8    1         0.6067964755E+00      0.1479563941E+01
          0                 4           2             4    7     1      -0.4323026654E-03       5    8    1        -0.2481803667E-01      0.6051432442E-01
          0                 5           1             4    7     1       0.5330478333E-05       5    8    1         0.3145209805E-03      0.7669029553E-03

    ------------------------------------------------
       NWT REQUIRED            5 OUTER ITERATIONS 
       AND A TOTAL OF          9 INNER ITERATIONS.
    ------------------------------------------------

 NO OUTPUT CONTROL FOR STRESS PERIOD    9   TIME STEP   27
 
 SOLVING FOR HEAD 
                                                   Max.-Head-Change                         Max.-Flux-Residual
  Residual-Control   Outer-Iter.   Inner-Iter.     Column Row Layer    Maximum-Head-Change  Column Row Layer    Maximum-Flux-Residual          L2-NORM 
          0                 1           2             5    8     1       0.1014793291E+00       5    8    1         0.5503265437E+01      0.1379739848E+02
          0                 2           2             4    7     1      -0.1596113432E+00       5    8    1        -0.8670286668E+01      0.2114269656E+02
          0                 3           2             4    7     1       0.1086828207E-01       5    8    1         0.6068851061E+00      0.1479900798E+01
          0                 4           2             4    7     1      -0.4324596948E-03       5    8    1        -0.2482166166E-01      0.6052810203E-01
          0                 5           1             4    7     1       0.5332414733E-05       5    8    1         0.3145669104E-03      0.7670776640E-03

    ------------------------------------------------
       NWT REQUIRED            5 OUTER ITERATIONS 
       AND A TOTAL OF          9 INNER ITERATIONS.
    ------------------------------------------------

 NO OUTPUT CONTROL FOR STRESS PERIOD    9   TIME STEP   28
 
 SOLVING FOR HEAD 
                                                   Max.-Head-Change                         Max.-Flux-Residual
  Residual-Control   Outer-Iter.   Inner-Iter.     Column Row Layer    Maximum-Head-Change  Column Row Layer    Maximum-Flux-Residual          L2-NORM 
          0                 1           2             5    8     1       0.1017235664E+00       5    8    1         0.5515939739E+01      0.1383867813E+02
          0                 2           2             4    7     1      -0.1596681726E+00       5    8    1        -0.8671554090E+01      0.2114745388E+02
          0                 3           2             4    7     1       0.1087215158E-01       5    8    1         0.6069738273E+00      0.1480233792E+01
          0                 4           2             4    7     1      -0.4326136682E-03       5    8    1        -0.2482529035E-01      0.6054172157E-01
          0                 5           1             4    7     1       0.5334313049E-05       5    8    1         0.3146129116E-03      0.7672504200E-03

    ------------------------------------------------
       NWT REQUIRED            5 OUTER ITERATIONS 
       AND A TOTAL OF          9 INNER ITERATIONS.
    ------------------------------------------------

 NO OUTPUT CONTROL FOR STRESS PERIOD    9   TIME STEP   29
 
 SOLVING FOR HEAD 
                                                   Max.-Head-Change                         Max.-Flux-Residual
  Residual-Control   Outer-Iter.   Inner-Iter.     Column Row Layer    Maximum-Head-Change  Column Row Layer    Maximum-Flux-Residual          L2-NORM 
          0                 1           2             5    8     1       0.1019678994E+00       5    8    1         0.5528630655E+01      0.1387959066E+02
          0                 2           2             4    7     1      -0.1597371463E+00       5    8    1        -0.8672823175E+01      0.2115215614E+02
          0                 3           2             4    7     1       0.1087684780E-01       5    8    1         0.6070626606E+00      0.1480562933E+01
          0                 4           2             4    7     1      -0.4328005384E-03       5    8    1        -0.2482892365E-01      0.6055518365E-01
          0                 5           1             4    7     1       0.5336617194E-05       5    8    1         0.3146589381E-03      0.7674210434E-03

    ------------------------------------------------
       NWT REQUIRED            5 OUTER ITERATIONS 
       AND A TOTAL OF          9 INNER ITERATIONS.
    ------------------------------------------------

 NO OUTPUT CONTROL FOR STRESS PERIOD    9   TIME STEP   30



 STREAM LISTING     PERIOD      9   STEP       30

 LAYER ROW COL. STREAM  RCH.  FLOW INTO     FLOW TO   FLOW OUT OF   OVRLND.     DIRECT     STREAM       STREAM     STREAM     STREAM   STREAMBED  STREAMBED
                SEG.NO.  NO.  STRM. RCH.    AQUIFER    STRM. RCH.    RUNOFF     PRECIP       ET          HEAD       DEPTH      WIDTH   CONDCTNC.   GRADIENT

   1    1    1     1     1    6.1000E+01  3.7546E-01   6.0624E+01  0.000E+00  0.000E+00  0.000E+00  1.09459E+03  1.538E+00  1.839E+01  8.274E-02  1.513E+00
   1    2    2     1     2    6.0624E+01  5.8146E-01   6.0043E+01  0.000E+00  0.000E+00  0.000E+00  1.08959E+03  1.532E+00  1.833E+01  1.283E-01  1.511E+00
   1    3    3     1     3    6.0043E+01  4.9588E-01   5.9547E+01  0.000E+00  0.000E+00  0.000E+00  1.08394E+03  1.525E+00  1.826E+01  1.096E-01  1.508E+00
   1    3    4     1     4    5.9547E+01  4.5664E-01   5.9090E+01  0.000E+00  0.000E+00  0.000E+00  1.07893E+03  1.519E+00  1.821E+01  1.010E-01  1.506E+00
   1    4    5     2     1    5.7090E+01  3.8827E-01   5.6702E+01  0.000E+00  0.000E+00  0.000E+00  1.07391E+03  1.978E+00  1.200E+01  7.800E-02  1.659E+00
   1    5    6     2     2    5.6702E+01  2.9824E-01   5.6404E+01  0.000E+00  0.000E+00  0.000E+00  1.06848E+03  1.971E+00  1.200E+01  6.000E-02  1.657E+00
   1    6    6     2     3    5.6404E+01  2.9787E-01   5.6106E+01  0.000E+00  0.000E+00  0.000E+00  1.06376E+03  1.964E+00  1.200E+01  6.000E-02  1.655E+00
   1    7    6     2     4    5.6106E+01  2.9749E-01   5.5808E+01  0.000E+00  0.000E+00  0.000E+00  1.05903E+03  1.958E+00  1.200E+01  6.000E-02  1.653E+00
   1    8    6     2     5    5.5808E+01  2.9712E-01   5.5511E+01  0.000E+00  0.000E+00  0.000E+00  1.05431E+03  1.952E+00  1.200E+01  6.000E-02  1.651E+00
   1    3    5     3     1    2.0000E+00  2.8252E-01   1.7175E+00  0.000E+00  0.000E+00  0.000E+00  1.07555E+03  1.909E+00  9.636E+00  7.227E-02  1.955E+00
   1    3    6     3     2    1.7175E+00  2.4905E-01   1.4684E+00  0.000E+00  0.000E+00  0.000E+00  1.07264E+03  1.727E+00  8.909E+00  6.682E-02  1.864E+00
   1    3    7     3     3    1.4684E+00  1.9718E-01   1.2712E+00  0.000E+00  0.000E+00  0.000E+00  1.06987E+03  1.555E+00  8.218E+00  5.547E-02  1.777E+00
   1    4    8     3     4    1.2712E+00  2.2567E-01   1.0456E+00  0.000E+00  0.000E+00  0.000E+00  1.06682E+03  1.364E+00  7.455E+00  6.709E-02  1.682E+00
   1    5    8     3     5    1.0456E+00  1.5790E-01   8.8768E-01  0.000E+00  0.000E+00  0.000E+00  1.06362E+03  1.164E+00  6.655E+00  4.991E-02  1.582E+00
   1    6    8     3     6    8.8768E-01  5.5980E-02   8.3170E-01  0.000E+00  0.000E+00  0.000E+00  1.06158E+03  1.036E+00  6.145E+00  1.844E-02  1.518E+00
   1    5   10     4     1    1.0000E+01  9.0919E-02   9.9091E+00  0.000E+00  0.000E+00  0.000E+00  1.07836E+03  6.368E-01  1.000E+01  2.500E-02  1.212E+00
   1    5    9     4     2    9.9091E+00  1.8158E-01   9.7275E+00  0.000E+00  0.000E+00  0.000E+00  1.07154E+03  6.315E-01  1.000E+01  5.000E-02  1.211E+00
   1    6    8     4     3    9.7275E+00  1.2689E-01   9.6006E+00  0.000E+00  0.000E+00  0.000E+00  1.06381E+03  6.256E-01  1.000E+01  3.500E-02  1.209E+00
   1    6    8     5     1    1.0432E+01  2.2686E-01   1.0205E+01  0.000E+00  0.000E+00  0.000E+00  1.05868E+03  6.790E-01  1.542E+01  6.166E-02  1.226E+00
   1    7    7     5     2    1.0205E+01  2.7894E-01   9.9265E+00  0.000E+00  0.000E+00  0.000E+00  1.05417E+03  6.732E-01  1.519E+01  7.594E-02  1.224E+00
   1    8    7     5     3    9.9265E+00  1.9221E-01   9.7343E+00  0.000E+00  0.000E+00  0.000E+00  1.04992E+03  6.676E-01  1.497E+01  5.241E-02  1.223E+00
   1    8    6     5     4    9.7343E+00  1.3577E-01   9.5985E+00  0.000E+00  0.000E+00  0.000E+00  1.04691E+03  6.637E-01  1.482E+01  3.706E-02  1.221E+00
   1    9    6     6     1    6.5110E+01  3.0992E-01   6.4800E+01  0.000E+00  0.000E+00  0.000E+00  1.04489E+03  2.165E+00  1.200E+01  6.000E-02  1.722E+00
   1   10    7     6     2    6.4800E+01  3.0955E-01   6.4490E+01  0.000E+00  0.000E+00  0.000E+00  1.04034E+03  2.159E+00  1.200E+01  6.000E-02  1.720E+00
   1   11    7     6     3    6.4490E+01  3.0918E-01   6.4181E+01  0.000E+00  0.000E+00  0.000E+00  1.03579E+03  2.153E+00  1.200E+01  6.000E-02  1.718E+00
   1   12    7     6     4    6.4181E+01  3.0881E-01   6.3872E+01  0.000E+00  0.000E+00  0.000E+00  1.03124E+03  2.147E+00  1.200E+01  6.000E-02  1.716E+00
   1   13    7     6     5    6.3872E+01  1.9337E-02   6.3853E+01  0.000E+00  0.000E+00  0.000E+00  1.02805E+03  2.143E+00  1.200E+01  2.400E-02  2.686E-01
   1   14    9     7     1    1.5000E+02  1.3312E+00   1.4867E+02  0.000E+00  0.000E+00  0.000E+00  1.03987E+03  2.288E+00  5.529E+01  5.593E-01  7.934E-01
   1   13    8     7     2    1.4867E+02  1.7954E+00   1.4687E+02  0.000E+00  0.000E+00  0.000E+00  1.03478E+03  2.279E+00  5.526E+01  6.148E-01  9.735E-01
   1   13    7     7     3    1.4687E+02  1.3646E+00   1.4551E+02  0.000E+00  0.000E+00  0.000E+00  1.02969E+03  2.271E+00  5.522E+01  5.585E-01  8.145E-01
   1   13    6     8     1    2.0936E+02  9.6418E-01   2.0840E+02  0.000E+00  0.000E+00  0.000E+00  1.02506E+03  3.189E+00  4.624E+01  4.712E-01  6.820E-01
   1   13    5     8     2    2.0840E+02  1.7003E-01   2.0823E+02  0.000E+00  0.000E+00  0.000E+00  1.01881E+03  3.186E+00  4.620E+01  4.708E-01  1.204E-01
   1   13    4     8     3    2.0823E+02 -2.1835E+00   2.1041E+02  0.000E+00  0.000E+00  0.000E+00  1.01257E+03  3.192E+00  4.628E+01  4.716E+00 -1.543E-01
   1   13    3     8     4    2.1041E+02 -3.3094E+00   2.1372E+02  0.000E+00  0.000E+00  0.000E+00  1.00633E+03  3.207E+00  4.651E+01  4.739E+00 -2.328E-01
   1   13    2     8     5    2.1372E+02 -2.5495E+00   2.1627E+02  0.000E+00  0.000E+00  0.000E+00  1.00010E+03  3.224E+00  4.675E+01  4.764E+00 -1.784E-01
   1   13    1     8     6    2.1627E+02 -2.0051E+00   2.1828E+02  0.000E+00  0.000E+00  0.000E+00  9.95112E+02  3.237E+00  4.693E+01  2.870E+00 -2.329E-01





UNSATURATED ZONE PACKAGE VOLUMETRIC BUDGET FOR  TIME STEP    30 STRESS PERIOD    9
  ------------------------------------------------------------------------------



     CUMULATIVE VOLUMES      L**3       RATES FOR THIS TIME STEP      L**3/T
     ------------------                 ------------------------

           IN:                                      IN:
           ---                                      ---
        INFILTRATION =   392296368.5901          INFILTRATION =          49.5675

          OUT:                                     OUT:
          ----                                     ----
              UZF ET =   392128078.4489                UZF ET =          49.5675
        UZF RECHARGE =       73224.0000          UZF RECHARGE =       0.0000E+00

            IN - OUT =       95066.1412              IN - OUT =       0.0000E+00

          STORAGE:                                 STORAGE:
          --------                                 --------
      STORAGE CHANGE =       95064.3613        STORAGE CHANGE =       4.1498E-17

 PERCENT DISCREPANCY IS DIFFERENCE BETWEEN IN-OUT MINUS CHANGE IN STORAGE
 DIVIDED BY THE AVERAGE OF IN AND OUT TIMES 100

 PERCENT DISCREPANCY =           0.00     PERCENT DISCREPANCY =           0.00






1
  VOLUMETRIC BUDGET FOR AGRICULTURAL FIELDS AT  END OF TIME STEP   30, STRESS PERIOD   9
  ------------------------------------------------------------------------------

     CUMULATIVE VOLUMES      L**3       RATES FOR THIS TIME STEP      L**3/T
     ------------------                 ------------------------

           IN:                                      IN:
           ---                                      ---
               AG WELLS  =   374391552.0000                 AG WELLS  =          48.7200
      DIVERSION SEGMENTS =           0.0000        DIVERSION SEGMENTS =           0.0000
       IRRIGATION PONDS  =           0.0000         IRRIGATION PONDS  =           0.0000
           GW IRRIGATION =           0.0000             GW IRRIGATION =           0.0000
           SW IRRIGATION =           0.0000             SW IRRIGATION =           0.0000
        SYSTEM LOSSES GW =           0.0000          SYSTEM LOSSES GW =           0.0000
        SYSTEM LOSSES SW =           0.0000          SYSTEM LOSSES SW =           0.0000

                TOTAL IN =   374391552.0000                  TOTAL IN =          48.7200

          OUT:                                     OUT:
          ----                                     ----
               AG WELLS  =           0.0000                 AG WELLS  =           0.0000
      DIVERSION SEGMENTS =           0.0000        DIVERSION SEGMENTS =           0.0000
       IRRIGATION PONDS  =           0.0000         IRRIGATION PONDS  =           0.0000
           GW IRRIGATION =   374391552.0000             GW IRRIGATION =          48.7200
           SW IRRIGATION =           0.0000             SW IRRIGATION =           0.0000
        SYSTEM LOSSES GW =           0.0000          SYSTEM LOSSES GW =           0.0000
        SYSTEM LOSSES SW =           0.0000          SYSTEM LOSSES SW =           0.0000

               TOTAL OUT =   374391552.0000                 TOTAL OUT =          48.7200

                IN - OUT =           0.0000                  IN - OUT =           0.0000

     PERCENT DISCREPANCY =           0.00         PERCENT DISCREPANCY =           0.00



1
  VOLUMETRIC BUDGET FOR ENTIRE MODEL AT END OF TIME STEP   30, STRESS PERIOD   9
  ------------------------------------------------------------------------------

     CUMULATIVE VOLUMES      L**3       RATES FOR THIS TIME STEP      L**3/T
     ------------------                 ------------------------

           IN:                                      IN:
           ---                                      ---
             STORAGE     =   376670912.0000               STORAGE     =          47.7650
       CONSTANT HEAD     =           0.0000         CONSTANT HEAD     =           0.0000
     HEAD DEP BOUNDS     =     6030661.5000       HEAD DEP BOUNDS     =           0.2854
      STREAM LEAKAGE     =   270659328.0000        STREAM LEAKAGE     =          12.7721
        UZF RECHARGE     =       73223.9531          UZF RECHARGE     =           0.0000
               GW ET     =           0.0000                 GW ET     =           0.0000
     SURFACE LEAKAGE     =           0.0000       SURFACE LEAKAGE     =           0.0000
           AG WELLS      =           0.0000             AG WELLS      =           0.0000

                TOTAL IN =   653434112.0000                  TOTAL IN =          60.8226

          OUT:                                     OUT:
          ----                                     ----
             STORAGE     =    47465304.0000               STORAGE     =           0.7764
       CONSTANT HEAD     =           0.0000         CONSTANT HEAD     =           0.0000
     HEAD DEP BOUNDS     =     6242938.5000       HEAD DEP BOUNDS     =           0.2968
      STREAM LEAKAGE     =   212316848.0000        STREAM LEAKAGE     =          10.0476
        UZF RECHARGE     =           0.0000          UZF RECHARGE     =           0.0000
               GW ET     =    13021064.0000                 GW ET     =           0.9818
     SURFACE LEAKAGE     =           0.0000       SURFACE LEAKAGE     =           0.0000
           AG WELLS      =   374391552.0000             AG WELLS      =          48.7200

               TOTAL OUT =   653437696.0000                 TOTAL OUT =          60.8226

                IN - OUT =       -3584.0000                  IN - OUT =       2.6703E-05

     PERCENT DISCREPANCY =          -0.00         PERCENT DISCREPANCY =           0.00






         TIME SUMMARY AT END OF TIME STEP   30 IN STRESS PERIOD    9
                    SECONDS     MINUTES      HOURS       DAYS        YEARS
                    -----------------------------------------------------------
   TIME STEP LENGTH  87667.      1461.1      24.352      1.0147     2.77799E-03
 STRESS PERIOD TIME 2.63000E+06  43833.      730.56      30.440     8.33397E-02
         TOTAL TIME 2.11264E+07 3.52107E+05  5868.4      244.52     0.66945    
1
1
                            STRESS PERIOD NO.   10, LENGTH =   2630000.    
                            -----------------------------------------------

                              NUMBER OF TIME STEPS =    30

                               MULTIPLIER FOR DELT =     1.000

                            INITIAL TIME STEP SIZE =   87666.66    

 REUSING NON-PARAMETER GHB CELLS FROM LAST STRESS PERIOD

      2 GHB CELLS

 REUSING STREAM SEGMENT DATA FROM LAST STRESS PERIOD



            AREAL INFILTRATION RATE
 READING ON UNIT   19 WITH FORMAT: (FREE)              

            1           2           3           4           5           6           7           8           9          10
 ........................................................................................................................
   1   1.0000E-10  2.0000E-10   0.000       0.000       0.000       0.000       0.000       0.000       0.000       0.000    
   2   2.0000E-10  1.0000E-10  2.0000E-10   0.000       0.000      8.0000E-10  8.0000E-10  5.0000E-10   0.000       0.000    
   3    0.000      5.0000E-10  1.0000E-10  1.0000E-10  8.0000E-10  8.0000E-10  5.0000E-10  5.0000E-10   0.000       0.000    
   4   8.0000E-10  5.0000E-10  1.0000E-10  1.0000E-10  1.0000E-10  1.0000E-10  1.0000E-10  1.0000E-10  2.0000E-10   0.000    
   5   8.0000E-10  5.0000E-10  1.0000E-10  1.0000E-10  1.0000E-10  1.0000E-10  1.0000E-10  1.0000E-10  1.0000E-10  1.0000E-10
   6   8.0000E-10  5.0000E-10  5.0000E-10  2.0000E-10  2.0000E-10  1.0000E-10  1.0000E-10  1.0000E-10  1.0000E-10  5.0000E-10
   7   8.0000E-10  5.0000E-10  5.0000E-10  2.0000E-10  2.0000E-10  1.0000E-10  1.0000E-10  2.0000E-10  2.0000E-10   0.000    
   8    0.000      5.0000E-10  5.0000E-10  2.0000E-10  2.0000E-10  1.0000E-10  1.0000E-10  2.0000E-10  5.0000E-10   0.000    
   9    0.000      5.0000E-10  5.0000E-10  2.0000E-10  2.0000E-10  1.0000E-10  1.0000E-10  2.0000E-10  5.0000E-10   0.000    
  10    0.000      5.0000E-10  5.0000E-10  2.0000E-10  2.0000E-10  1.0000E-10  1.0000E-10  2.0000E-10  5.0000E-10  8.0000E-10
  11    0.000      1.0000E-10  1.0000E-10  1.0000E-10  1.0000E-10  1.0000E-10  1.0000E-10  2.0000E-10  5.0000E-10   0.000    
  12   1.0000E-10  1.0000E-10  1.0000E-10  1.0000E-10  1.0000E-10  1.0000E-10  1.0000E-10  1.0000E-10  2.0000E-10   0.000    
  13   1.0000E-10  1.0000E-10  2.0000E-10  2.0000E-10  2.0000E-10  2.0000E-10  2.0000E-10  1.0000E-10  1.0000E-10   0.000    
  14    0.000      2.0000E-10  5.0000E-10  5.0000E-10  5.0000E-10  5.0000E-10  5.0000E-10  2.0000E-10  1.0000E-10   0.000    
  15    0.000       0.000      8.0000E-10  8.0000E-10  8.0000E-10  8.0000E-10   0.000       0.000       0.000       0.000    

                  ET RATE =  7.500000E-08

 USING ET EXTINCTION DEPTH FROM PREVIOUS STRESS PERIOD. CURRENT PERIOD IS:      10

 USING EXTINCTION WATER CONTENT FROM PREVIOUS STRESS PERIOD. CURRENT PERIOD IS:      10

 USING AIR ENTRY PRESSURE FROM PREVIOUS STRESS PERIOD. CURRENT PERIOD IS:      10

 USING ROOT PRESSURE HEAD FROM PREVIOUS STRESS PERIOD. CURRENT PERIOD IS:      10

 USING ROOT ACTIVITY FROM PREVIOUS STRESS PERIOD. CURRENT PERIOD IS:      10

 PROCESSING AG STRESS PERIOD DATA

 READING AG STRESS PERIOD DATA

 READING IRRIGATION WELL

 NO IRRPOND OR REUSING IRRPOND DATA FROM LAST STRESS PERIOD

 END PROCESSING AG STRESS PERIOD DATA OPTIONS
 
 SOLVING FOR HEAD 
                                                   Max.-Head-Change                         Max.-Flux-Residual
  Residual-Control   Outer-Iter.   Inner-Iter.     Column Row Layer    Maximum-Head-Change  Column Row Layer    Maximum-Flux-Residual          L2-NORM 
          0                 1           2             5    8     1       0.6720741208E-01       5    8    1         0.3666313305E+01      0.9975814793E+01
          0                 2           2             5    8     1      -0.6537324271E-02       5    8    1        -0.3666226972E+00      0.9975329925E+00
          0                 3           2             5    8     1       0.4451687838E-03       5    8    1         0.2566368271E-01      0.6982555030E-01
          0                 4           1             5    8     1      -0.1771367754E-04       5    8    1        -0.1049645700E-02      0.2855739668E-02

    ------------------------------------------------
       NWT REQUIRED            4 OUTER ITERATIONS 
       AND A TOTAL OF          7 INNER ITERATIONS.
    ------------------------------------------------

 NO OUTPUT CONTROL FOR STRESS PERIOD   10   TIME STEP    1
 
 SOLVING FOR HEAD 
                                                   Max.-Head-Change                         Max.-Flux-Residual
  Residual-Control   Outer-Iter.   Inner-Iter.     Column Row Layer    Maximum-Head-Change  Column Row Layer    Maximum-Flux-Residual          L2-NORM 
          0                 1           2             5    6     1       0.9910802722E-01       5    8    1         0.5367488326E+01      0.1362591598E+02
          0                 2           2             5    7     1      -0.4368161138E-01       5    8    1        -0.2406679888E+01      0.5843513259E+01
          0                 3           2             5    7     1       0.2974548736E-02       5    8    1         0.1684674203E+00      0.4090451837E+00
          0                 4           2             5    7     1      -0.1183600998E-03       5    8    1        -0.6890327670E-02      0.1672995868E-01
          0                 5           1             5    7     1       0.1459432671E-05       5    8    1         0.8732167953E-04      0.2120217924E-03

    ------------------------------------------------
       NWT REQUIRED            5 OUTER ITERATIONS 
       AND A TOTAL OF          9 INNER ITERATIONS.
    ------------------------------------------------

 NO OUTPUT CONTROL FOR STRESS PERIOD   10   TIME STEP    2
 
 SOLVING FOR HEAD 
                                                   Max.-Head-Change                         Max.-Flux-Residual
  Residual-Control   Outer-Iter.   Inner-Iter.     Column Row Layer    Maximum-Head-Change  Column Row Layer    Maximum-Flux-Residual          L2-NORM 
          0                 1           2             5    6     1       0.9630385055E-01       5    8    1         0.5204127668E+01      0.1333028368E+02
          0                 2           2             5    7     1      -0.4354973276E-01       5    8    1        -0.2390344679E+01      0.5818508899E+01
          0                 3           2             5    7     1       0.2965567851E-02       5    8    1         0.1673239556E+00      0.4072948241E+00
          0                 4           2             5    7     1      -0.1180027443E-03       5    8    1        -0.6843559907E-02      0.1665836818E-01
          0                 5           1             5    7     1       0.1455026455E-05       5    8    1         0.8672900344E-04      0.2111106044E-03

    ------------------------------------------------
       NWT REQUIRED            5 OUTER ITERATIONS 
       AND A TOTAL OF          9 INNER ITERATIONS.
    ------------------------------------------------

 NO OUTPUT CONTROL FOR STRESS PERIOD   10   TIME STEP    3
 
 SOLVING FOR HEAD 
                                                   Max.-Head-Change                         Max.-Flux-Residual
  Residual-Control   Outer-Iter.   Inner-Iter.     Column Row Layer    Maximum-Head-Change  Column Row Layer    Maximum-Flux-Residual          L2-NORM 
          0                 1           2             5    6     1       0.9365967298E-01       5    6    1         0.5057836745E+01      0.1304993074E+02
          0                 2           2             5    7     1      -0.4341975220E-01       5    6    1        -0.2375716158E+01      0.5794624926E+01
          0                 3           2             5    7     1       0.2956716262E-02       5    6    1         0.1662999527E+00      0.4056229210E+00
          0                 4           2             5    7     1      -0.1176505330E-03       5    6    1        -0.6801678147E-02      0.1658999379E-01
          0                 5           1             5    7     1       0.1450683528E-05       5    6    1         0.8619822370E-04      0.2102467610E-03

    ------------------------------------------------
       NWT REQUIRED            5 OUTER ITERATIONS 
       AND A TOTAL OF          9 INNER ITERATIONS.
    ------------------------------------------------

 NO OUTPUT CONTROL FOR STRESS PERIOD   10   TIME STEP    4
 
 SOLVING FOR HEAD 
                                                   Max.-Head-Change                         Max.-Flux-Residual
  Residual-Control   Outer-Iter.   Inner-Iter.     Column Row Layer    Maximum-Head-Change  Column Row Layer    Maximum-Flux-Residual          L2-NORM 
          0                 1           2             5    6     1       0.9116456582E-01       5    6    1         0.4920408472E+01      0.1278375041E+02
          0                 2           2             5    7     1      -0.4329184589E-01       5    6    1        -0.2361974180E+01      0.5771790654E+01
          0                 3           2             5    7     1       0.2948005962E-02       5    6    1         0.1653380103E+00      0.4040244964E+00
          0                 4           2             5    7     1      -0.1173039437E-03       5    6    1        -0.6762334662E-02      0.1652461821E-01
          0                 5           1             5    7     1       0.1446410050E-05       5    6    1         0.8569961869E-04      0.2094164131E-03

    ------------------------------------------------
       NWT REQUIRED            5 OUTER ITERATIONS 
       AND A TOTAL OF          9 INNER ITERATIONS.
    ------------------------------------------------

 NO OUTPUT CONTROL FOR STRESS PERIOD   10   TIME STEP    5
 
 SOLVING FOR HEAD 
                                                   Max.-Head-Change                         Max.-Flux-Residual
  Residual-Control   Outer-Iter.   Inner-Iter.     Column Row Layer    Maximum-Head-Change  Column Row Layer    Maximum-Flux-Residual          L2-NORM 
          0                 1           2             5    7     1       0.8924067692E-01       5    6    1         0.4790733926E+01      0.1253071923E+02
          0                 2           2             4    7     1      -0.4322883332E-01       5    6    1        -0.2349007540E+01      0.5749946302E+01
          0                 3           2             4    7     1       0.2943713591E-02       5    6    1         0.1644303414E+00      0.4024953636E+00
          0                 4           2             4    7     1      -0.1171331533E-03       5    6    1        -0.6725210992E-02      0.1646207660E-01
          0                 5           1             4    7     1       0.1444302603E-05       5    6    1         0.8522914550E-04      0.2086256964E-03

    ------------------------------------------------
       NWT REQUIRED            5 OUTER ITERATIONS 
       AND A TOTAL OF          9 INNER ITERATIONS.
    ------------------------------------------------

 NO OUTPUT CONTROL FOR STRESS PERIOD   10   TIME STEP    6
 
 SOLVING FOR HEAD 
                                                   Max.-Head-Change                         Max.-Flux-Residual
  Residual-Control   Outer-Iter.   Inner-Iter.     Column Row Layer    Maximum-Head-Change  Column Row Layer    Maximum-Flux-Residual          L2-NORM 
          0                 1           2             5    7     1       0.8797248124E-01       5    6    1         0.4668296883E+01      0.1228990294E+02
          0                 2           2             4    7     1      -0.4319770416E-01       5    6    1        -0.2336764500E+01      0.5729015265E+01
          0                 3           2             4    7     1       0.2941593377E-02       5    6    1         0.1635733245E+00      0.4010301634E+00
          0                 4           2             4    7     1      -0.1170487897E-03       5    6    1        -0.6690158950E-02      0.1640214538E-01
          0                 5           1             4    7     1       0.1443262209E-05       5    6    1         0.8478494010E-04      0.2078696886E-03

    ------------------------------------------------
       NWT REQUIRED            5 OUTER ITERATIONS 
       AND A TOTAL OF          9 INNER ITERATIONS.
    ------------------------------------------------

 NO OUTPUT CONTROL FOR STRESS PERIOD   10   TIME STEP    7
 
 SOLVING FOR HEAD 
                                                   Max.-Head-Change                         Max.-Flux-Residual
  Residual-Control   Outer-Iter.   Inner-Iter.     Column Row Layer    Maximum-Head-Change  Column Row Layer    Maximum-Flux-Residual          L2-NORM 
          0                 1           2             5    7     1       0.8672913718E-01       5    7    1         0.4599459933E+01      0.1206046094E+02
          0                 2           2             4    7     1      -0.4316300165E-01       5    7    1        -0.2329886310E+01      0.5708959587E+01
          0                 3           2             4    7     1       0.2939229865E-02       5    7    1         0.1630915401E+00      0.3996262547E+00
          0                 4           2             4    7     1      -0.1169547454E-03       5    7    1        -0.6670455384E-02      0.1634473480E-01
          0                 5           1             4    7     1       0.1442102520E-05       5    7    1         0.8453522605E-04      0.2071529329E-03

    ------------------------------------------------
       NWT REQUIRED            5 OUTER ITERATIONS 
       AND A TOTAL OF          9 INNER ITERATIONS.
    ------------------------------------------------

 NO OUTPUT CONTROL FOR STRESS PERIOD   10   TIME STEP    8
 
 SOLVING FOR HEAD 
                                                   Max.-Head-Change                         Max.-Flux-Residual
  Residual-Control   Outer-Iter.   Inner-Iter.     Column Row Layer    Maximum-Head-Change  Column Row Layer    Maximum-Flux-Residual          L2-NORM 
          0                 1           2             5    7     1       0.8551159921E-01       5    7    1         0.4534845958E+01      0.1184162783E+02
          0                 2           2             4    7     1      -0.4312501972E-01       5    7    1        -0.2323425728E+01      0.5689723165E+01
          0                 3           2             4    7     1       0.2936643069E-02       5    7    1         0.1626392839E+00      0.3982796833E+00
          0                 4           2             4    7     1      -0.1168518164E-03       5    7    1        -0.6651958153E-02      0.1628965648E-01
          0                 5           1             4    7     1       0.1440833728E-05       5    7    1         0.8430080402E-04      0.2064410698E-03

    ------------------------------------------------
       NWT REQUIRED            5 OUTER ITERATIONS 
       AND A TOTAL OF          9 INNER ITERATIONS.
    ------------------------------------------------

 NO OUTPUT CONTROL FOR STRESS PERIOD   10   TIME STEP    9
 
 SOLVING FOR HEAD 
                                                   Max.-Head-Change                         Max.-Flux-Residual
  Residual-Control   Outer-Iter.   Inner-Iter.     Column Row Layer    Maximum-Head-Change  Column Row Layer    Maximum-Flux-Residual          L2-NORM 
          0                 1           2             4    7     1       0.8471190083E-01       5    7    1         0.4471561944E+01      0.1163269856E+02
          0                 2           2             4    7     1      -0.4308407435E-01       5    7    1        -0.2317098089E+01      0.5671259292E+01
          0                 3           2             4    7     1       0.2933854504E-02       5    7    1         0.1621963354E+00      0.3969871901E+00
          0                 4           2             4    7     1      -0.1167408581E-03       5    7    1        -0.6633841576E-02      0.1623679522E-01
          0                 5           1             4    7     1       0.1439465354E-05       5    7    1         0.8407121163E-04      0.2058101802E-03

    ------------------------------------------------
       NWT REQUIRED            5 OUTER ITERATIONS 
       AND A TOTAL OF          9 INNER ITERATIONS.
    ------------------------------------------------

 NO OUTPUT CONTROL FOR STRESS PERIOD   10   TIME STEP   10
 
 SOLVING FOR HEAD 
                                                   Max.-Head-Change                         Max.-Flux-Residual
  Residual-Control   Outer-Iter.   Inner-Iter.     Column Row Layer    Maximum-Head-Change  Column Row Layer    Maximum-Flux-Residual          L2-NORM 
          0                 1           2             4    7     1       0.8426306152E-01       4    7    1         0.4410207420E+01      0.1143302201E+02
          0                 2           2             4    7     1      -0.4304042420E-01       4    7    1        -0.2310965249E+01      0.5653524710E+01
          0                 3           2             4    7     1       0.2930881782E-02       4    7    1         0.1617669130E+00      0.3957457529E+00
          0                 4           2             4    7     1      -0.1166225720E-03       4    7    1        -0.6616278766E-02      0.1618601956E-01
          0                 5           1             4    7     1       0.1438006585E-05       4    7    1         0.8384863440E-04      0.2051274604E-03

    ------------------------------------------------
       NWT REQUIRED            5 OUTER ITERATIONS 
       AND A TOTAL OF          9 INNER ITERATIONS.
    ------------------------------------------------

 NO OUTPUT CONTROL FOR STRESS PERIOD   10   TIME STEP   11
 
 SOLVING FOR HEAD 
                                                   Max.-Head-Change                         Max.-Flux-Residual
  Residual-Control   Outer-Iter.   Inner-Iter.     Column Row Layer    Maximum-Head-Change  Column Row Layer    Maximum-Flux-Residual          L2-NORM 
          0                 1           2             4    7     1       0.8378933726E-01       4    7    1         0.4386892134E+01      0.1124199819E+02
          0                 2           2             4    7     1      -0.4299435040E-01       4    7    1        -0.2308634471E+01      0.5636478893E+01
          0                 3           2             4    7     1       0.2927744044E-02       4    7    1         0.1616037400E+00      0.3945525314E+00
          0                 4           2             4    7     1      -0.1164977199E-03       4    7    1        -0.6609605065E-02      0.1613721933E-01
          0                 5           1             4    7     1       0.1436467389E-05       4    7    1         0.8376406549E-04      0.2045086302E-03

    ------------------------------------------------
       NWT REQUIRED            5 OUTER ITERATIONS 
       AND A TOTAL OF          9 INNER ITERATIONS.
    ------------------------------------------------

 NO OUTPUT CONTROL FOR STRESS PERIOD   10   TIME STEP   12
 
 SOLVING FOR HEAD 
                                                   Max.-Head-Change                         Max.-Flux-Residual
  Residual-Control   Outer-Iter.   Inner-Iter.     Column Row Layer    Maximum-Head-Change  Column Row Layer    Maximum-Flux-Residual          L2-NORM 
          0                 1           2             4    7     1       0.8329303860E-01       4    7    1         0.4362272171E+01      0.1105907334E+02
          0                 2           2             4    7     1      -0.4294607570E-01       4    7    1        -0.2306173065E+01      0.5620084310E+01
          0                 3           2             4    7     1       0.2924456458E-02       4    7    1         0.1614314248E+00      0.3934048929E+00
          0                 4           2             4    7     1      -0.1163669051E-03       4    7    1        -0.6602557452E-02      0.1609028305E-01
          0                 5           1             4    7     1       0.1434854376E-05       4    7    1         0.8367474152E-04      0.2039212675E-03

    ------------------------------------------------
       NWT REQUIRED            5 OUTER ITERATIONS 
       AND A TOTAL OF          9 INNER ITERATIONS.
    ------------------------------------------------

 NO OUTPUT CONTROL FOR STRESS PERIOD   10   TIME STEP   13
 
 SOLVING FOR HEAD 
                                                   Max.-Head-Change                         Max.-Flux-Residual
  Residual-Control   Outer-Iter.   Inner-Iter.     Column Row Layer    Maximum-Head-Change  Column Row Layer    Maximum-Flux-Residual          L2-NORM 
          0                 1           2             4    7     1       0.8277672750E-01       4    7    1         0.4336489154E+01      0.1088374846E+02
          0                 2           2             4    7     1      -0.4289585400E-01       4    7    1        -0.2303595437E+01      0.5604306910E+01
          0                 3           2             4    7     1       0.2921036311E-02       4    7    1         0.1612509754E+00      0.3923004612E+00
          0                 4           2             4    7     1      -0.1162308155E-03       4    7    1        -0.6595177133E-02      0.1604511266E-01
          0                 5           1             4    7     1       0.1433176282E-05       4    7    1         0.8358122341E-04      0.2033487817E-03

    ------------------------------------------------
       NWT REQUIRED            5 OUTER ITERATIONS 
       AND A TOTAL OF          9 INNER ITERATIONS.
    ------------------------------------------------

 NO OUTPUT CONTROL FOR STRESS PERIOD   10   TIME STEP   14
 
 SOLVING FOR HEAD 
                                                   Max.-Head-Change                         Max.-Flux-Residual
  Residual-Control   Outer-Iter.   Inner-Iter.     Column Row Layer    Maximum-Head-Change  Column Row Layer    Maximum-Flux-Residual          L2-NORM 
          0                 1           2             4    7     1       0.8224266858E-01       4    7    1         0.4309668628E+01      0.1071556298E+02
          0                 2           2             4    7     1      -0.4284390358E-01       4    7    1        -0.2300914024E+01      0.5589114976E+01
          0                 3           2             4    7     1       0.2917498465E-02       4    7    1         0.1610632626E+00      0.3912370099E+00
          0                 4           2             4    7     1      -0.1160900421E-03       4    7    1        -0.6587499726E-02      0.1600161740E-01
          0                 5           1             4    7     1       0.1431440052E-05       4    7    1         0.8348390838E-04      0.2027910927E-03

    ------------------------------------------------
       NWT REQUIRED            5 OUTER ITERATIONS 
       AND A TOTAL OF          9 INNER ITERATIONS.
    ------------------------------------------------

 NO OUTPUT CONTROL FOR STRESS PERIOD   10   TIME STEP   15
 
 SOLVING FOR HEAD 
                                                   Max.-Head-Change                         Max.-Flux-Residual
  Residual-Control   Outer-Iter.   Inner-Iter.     Column Row Layer    Maximum-Head-Change  Column Row Layer    Maximum-Flux-Residual          L2-NORM 
          0                 1           2             4    7     1       0.8169270889E-01       4    7    1         0.4281913438E+01      0.1055407617E+02
          0                 2           2             4    7     1      -0.4279040428E-01       4    7    1        -0.2298139115E+01      0.5574477072E+01
          0                 3           2             4    7     1       0.2913855168E-02       4    7    1         0.1608690062E+00      0.3902123471E+00
          0                 4           2             4    7     1      -0.1159450728E-03       4    7    1        -0.6579554683E-02      0.1597098890E-01
          0                 5           1             3   13     1       0.9378427560E-05       3   13    1         0.6235930432E-03      0.6557988534E-03

    ------------------------------------------------
       NWT REQUIRED            5 OUTER ITERATIONS 
       AND A TOTAL OF          9 INNER ITERATIONS.
    ------------------------------------------------

 NO OUTPUT CONTROL FOR STRESS PERIOD   10   TIME STEP   16
 
 SOLVING FOR HEAD 
                                                   Max.-Head-Change                         Max.-Flux-Residual
  Residual-Control   Outer-Iter.   Inner-Iter.     Column Row Layer    Maximum-Head-Change  Column Row Layer    Maximum-Flux-Residual          L2-NORM 
          0                 1           2             4    7     1       0.8112897256E-01       4    7    1         0.4253341184E+01      0.1039889664E+02
          0                 2           2             4    7     1      -0.4273556292E-01       4    7    1        -0.2295282470E+01      0.5560365682E+01
          0                 3           2             4    7     1       0.2910120500E-02       4    7    1         0.1606690296E+00      0.3892245359E+00
          0                 4           2             4    7     1      -0.1157964681E-03       4    7    1        -0.6571375698E-02      0.1591930792E-01
          0                 5           1             4    7     1       0.1427820740E-05       4    7    1         0.8327958358E-04      0.2017475224E-03

    ------------------------------------------------
       NWT REQUIRED            5 OUTER ITERATIONS 
       AND A TOTAL OF          9 INNER ITERATIONS.
    ------------------------------------------------

 NO OUTPUT CONTROL FOR STRESS PERIOD   10   TIME STEP   17
 
 SOLVING FOR HEAD 
                                                   Max.-Head-Change                         Max.-Flux-Residual
  Residual-Control   Outer-Iter.   Inner-Iter.     Column Row Layer    Maximum-Head-Change  Column Row Layer    Maximum-Flux-Residual          L2-NORM 
          0                 1           2             4    7     1       0.8055330552E-01       4    7    1         0.4224054708E+01      0.1024966760E+02
          0                 2           2             4    7     1      -0.4268130544E-01       4    7    1        -0.2292549838E+01      0.5546755959E+01
          0                 3           2             4    7     1       0.2906425577E-02       4    7    1         0.1604777324E+00      0.3882718412E+00
          0                 4           2             4    7     1      -0.1156494444E-03       4    7    1        -0.6563551681E-02      0.1588034100E-01
          0                 5           1             4    7     1       0.1426007892E-05       4    7    1         0.8318043024E-04      0.2012530103E-03

    ------------------------------------------------
       NWT REQUIRED            5 OUTER ITERATIONS 
       AND A TOTAL OF          9 INNER ITERATIONS.
    ------------------------------------------------

 NO OUTPUT CONTROL FOR STRESS PERIOD   10   TIME STEP   18
 
 SOLVING FOR HEAD 
                                                   Max.-Head-Change                         Max.-Flux-Residual
  Residual-Control   Outer-Iter.   Inner-Iter.     Column Row Layer    Maximum-Head-Change  Column Row Layer    Maximum-Flux-Residual          L2-NORM 
          0                 1           2             4    7     1       0.7995438807E-01       4    7    1         0.4194049231E+01      0.1010603969E+02
          0                 2           2             4    7     1      -0.4262063690E-01       4    7    1        -0.2289354327E+01      0.5533620044E+01
          0                 3           2             4    7     1       0.2902294150E-02       4    7    1         0.1602540385E+00      0.3873523166E+00
          0                 4           2             4    7     1      -0.1154850512E-03       4    7    1        -0.6554402608E-02      0.1584273392E-01
          0                 5           1             4    7     1       0.1423980424E-05       4    7    1         0.8306446944E-04      0.2007760734E-03

    ------------------------------------------------
       NWT REQUIRED            5 OUTER ITERATIONS 
       AND A TOTAL OF          9 INNER ITERATIONS.
    ------------------------------------------------

 NO OUTPUT CONTROL FOR STRESS PERIOD   10   TIME STEP   19
 
 SOLVING FOR HEAD 
                                                   Max.-Head-Change                         Max.-Flux-Residual
  Residual-Control   Outer-Iter.   Inner-Iter.     Column Row Layer    Maximum-Head-Change  Column Row Layer    Maximum-Flux-Residual          L2-NORM 
          0                 1           2             4    7     1       0.7934948131E-01       4    7    1         0.4163066801E+01      0.9967693095E+01
          0                 2           2             4    7     1      -0.4256178593E-01       4    7    1        -0.2286256596E+01      0.5520938066E+01
          0                 3           2             4    7     1       0.2898286495E-02       4    7    1         0.1600371893E+00      0.3864645657E+00
          0                 4           2             4    7     1      -0.1153255838E-03       4    7    1        -0.6545533512E-02      0.1580642493E-01
          0                 5           1             4    7     1       0.1422014339E-05       4    7    1         0.8295208249E-04      0.2003183434E-03

    ------------------------------------------------
       NWT REQUIRED            5 OUTER ITERATIONS 
       AND A TOTAL OF          9 INNER ITERATIONS.
    ------------------------------------------------

 NO OUTPUT CONTROL FOR STRESS PERIOD   10   TIME STEP   20
 
 SOLVING FOR HEAD 
                                                   Max.-Head-Change                         Max.-Flux-Residual
  Residual-Control   Outer-Iter.   Inner-Iter.     Column Row Layer    Maximum-Head-Change  Column Row Layer    Maximum-Flux-Residual          L2-NORM 
          0                 1           2             4    7     1       0.7873737480E-01       4    7    1         0.4131631308E+01      0.9834339087E+01
          0                 2           2             4    7     1      -0.4250226127E-01       4    7    1        -0.2283113419E+01      0.5508687698E+01
          0                 3           2             4    7     1       0.2894232979E-02       4    7    1         0.1598171599E+00      0.3856070315E+00
          0                 4           2             4    7     1      -0.1151642913E-03       4    7    1        -0.6536534340E-02      0.1577135245E-01
          0                 5           1             4    7     1       0.1420025628E-05       4    7    1         0.8283803368E-04      0.1998728893E-03

    ------------------------------------------------
       NWT REQUIRED            5 OUTER ITERATIONS 
       AND A TOTAL OF          9 INNER ITERATIONS.
    ------------------------------------------------

 NO OUTPUT CONTROL FOR STRESS PERIOD   10   TIME STEP   21
 
 SOLVING FOR HEAD 
                                                   Max.-Head-Change                         Max.-Flux-Residual
  Residual-Control   Outer-Iter.   Inner-Iter.     Column Row Layer    Maximum-Head-Change  Column Row Layer    Maximum-Flux-Residual          L2-NORM 
          0                 1           2             4    7     1       0.7811948198E-01       4    7    1         0.4099828238E+01      0.9705709656E+01
          0                 2           2             4    7     1      -0.4244210917E-01       4    7    1        -0.2279933586E+01      0.5496845994E+01
          0                 3           2             4    7     1       0.2890136746E-02       4    7    1         0.1595945651E+00      0.3847781025E+00
          0                 4           2             4    7     1      -0.1150012987E-03       4    7    1        -0.6527430226E-02      0.1573744941E-01
          0                 5           1             4    7     1       0.1418015746E-05       4    7    1         0.8272265677E-04      0.1994425052E-03

    ------------------------------------------------
       NWT REQUIRED            5 OUTER ITERATIONS 
       AND A TOTAL OF          9 INNER ITERATIONS.
    ------------------------------------------------

 NO OUTPUT CONTROL FOR STRESS PERIOD   10   TIME STEP   22
 
 SOLVING FOR HEAD 
                                                   Max.-Head-Change                         Max.-Flux-Residual
  Residual-Control   Outer-Iter.   Inner-Iter.     Column Row Layer    Maximum-Head-Change  Column Row Layer    Maximum-Flux-Residual          L2-NORM 
          0                 1           2             4    7     1       0.7749723038E-01       4    7    1         0.4067728696E+01      0.9581566368E+01
          0                 2           2             4    7     1      -0.4238156749E-01       4    7    1        -0.2276724089E+01      0.5485398368E+01
          0                 3           2             4    7     1       0.2886013997E-02       4    7    1         0.1593698948E+00      0.3839767588E+00
          0                 4           2             4    7     1      -0.1148372511E-03       4    7    1        -0.6518241221E-02      0.1570467442E-01
          0                 5           1             4    7     1       0.1415992870E-05       4    7    1         0.8260620189E-04      0.1990266737E-03

    ------------------------------------------------
       NWT REQUIRED            5 OUTER ITERATIONS 
       AND A TOTAL OF          9 INNER ITERATIONS.
    ------------------------------------------------

 NO OUTPUT CONTROL FOR STRESS PERIOD   10   TIME STEP   23
 
 SOLVING FOR HEAD 
                                                   Max.-Head-Change                         Max.-Flux-Residual
  Residual-Control   Outer-Iter.   Inner-Iter.     Column Row Layer    Maximum-Head-Change  Column Row Layer    Maximum-Flux-Residual          L2-NORM 
          0                 1           2             4    7     1       0.7687179841E-01       4    7    1         0.4035401304E+01      0.9461666933E+01
          0                 2           2             4    7     1      -0.4232071328E-01       4    7    1        -0.2273491672E+01      0.5474324111E+01
          0                 3           2             4    7     1       0.2881869979E-02       4    7    1         0.1591436209E+00      0.3832015538E+00
          0                 4           2             4    7     1      -0.1146723571E-03       4    7    1        -0.6508986634E-02      0.1567296885E-01
          0                 5           1             4    7     1       0.1413959800E-05       4    7    1         0.8248891140E-04      0.1986262384E-03

    ------------------------------------------------
       NWT REQUIRED            5 OUTER ITERATIONS 
       AND A TOTAL OF          9 INNER ITERATIONS.
    ------------------------------------------------

 NO OUTPUT CONTROL FOR STRESS PERIOD   10   TIME STEP   24
 
 SOLVING FOR HEAD 
                                                   Max.-Head-Change                         Max.-Flux-Residual
  Residual-Control   Outer-Iter.   Inner-Iter.     Column Row Layer    Maximum-Head-Change  Column Row Layer    Maximum-Flux-Residual          L2-NORM 
          0                 1           2             4    7     1       0.7624417564E-01       4    7    1         0.4002901757E+01      0.9345796884E+01
          0                 2           2             4    7     1      -0.4225964734E-01       4    7    1        -0.2270242145E+01      0.5463607287E+01
          0                 3           2             4    7     1       0.2877711553E-02       4    7    1         0.1589161499E+00      0.3824513673E+00
          0                 4           2             4    7     1      -0.1145068897E-03       4    7    1        -0.6499683066E-02      0.1564228625E-01
          0                 5           1             4    7     1       0.1411919562E-05       4    7    1         0.8237101088E-04      0.1982368376E-03

    ------------------------------------------------
       NWT REQUIRED            5 OUTER ITERATIONS 
       AND A TOTAL OF          9 INNER ITERATIONS.
    ------------------------------------------------

 NO OUTPUT CONTROL FOR STRESS PERIOD   10   TIME STEP   25
 
 SOLVING FOR HEAD 
                                                   Max.-Head-Change                         Max.-Flux-Residual
  Residual-Control   Outer-Iter.   Inner-Iter.     Column Row Layer    Maximum-Head-Change  Column Row Layer    Maximum-Flux-Residual          L2-NORM 
          0                 1           2             4    7     1       0.7561566940E-01       4    7    1         0.3970303220E+01      0.9233766980E+01
          0                 2           2             4    7     1      -0.4219849253E-01       4    7    1        -0.2266982587E+01      0.5453232199E+01
          0                 3           2             4    7     1       0.2873547085E-02       4    7    1         0.1586879774E+00      0.3817251024E+00
          0                 4           2             4    7     1      -0.1143411819E-03       4    7    1        -0.6490350818E-02      0.1561258280E-01
          0                 5           1             4    7     1       0.1409876188E-05       4    7    1         0.8225273973E-04      0.1978598343E-03

    ------------------------------------------------
       NWT REQUIRED            5 OUTER ITERATIONS 
       AND A TOTAL OF          9 INNER ITERATIONS.
    ------------------------------------------------

 NO OUTPUT CONTROL FOR STRESS PERIOD   10   TIME STEP   26
 
 SOLVING FOR HEAD 
                                                   Max.-Head-Change                         Max.-Flux-Residual
  Residual-Control   Outer-Iter.   Inner-Iter.     Column Row Layer    Maximum-Head-Change  Column Row Layer    Maximum-Flux-Residual          L2-NORM 
          0                 1           2             4    7     1       0.7498681756E-01       4    7    1         0.3937637035E+01      0.9125377541E+01
          0                 2           2             4    7     1      -0.4213730566E-01       4    7    1        -0.2263716371E+01      0.5443183732E+01
          0                 3           2             4    7     1       0.2869380443E-02       4    7    1         0.1584593394E+00      0.3810217022E+00
          0                 4           2             4    7     1      -0.1141753872E-03       4    7    1        -0.6480999518E-02      0.1558381243E-01
          0                 5           1             4    7     1       0.1407831805E-05       4    7    1         0.8213422529E-04      0.1974954066E-03

    ------------------------------------------------
       NWT REQUIRED            5 OUTER ITERATIONS 
       AND A TOTAL OF          9 INNER ITERATIONS.
    ------------------------------------------------

 NO OUTPUT CONTROL FOR STRESS PERIOD   10   TIME STEP   27
 
 SOLVING FOR HEAD 
                                                   Max.-Head-Change                         Max.-Flux-Residual
  Residual-Control   Outer-Iter.   Inner-Iter.     Column Row Layer    Maximum-Head-Change  Column Row Layer    Maximum-Flux-Residual          L2-NORM 
          0                 1           2             4    7     1       0.7435890996E-01       4    7    1         0.3904974812E+01      0.9020469025E+01
          0                 2           2             4    7     1      -0.4207620788E-01       4    7    1        -0.2260450422E+01      0.5433448251E+01
          0                 3           2             4    7     1       0.2865219875E-02       4    7    1         0.1582307207E+00      0.3803402115E+00
          0                 4           2             4    7     1      -0.1140098347E-03       4    7    1        -0.6471649005E-02      0.1555594036E-01
          0                 5           1             4    7     1       0.1405790558E-05       4    7    1         0.8201573701E-04      0.1971813949E-03

    ------------------------------------------------
       NWT REQUIRED            5 OUTER ITERATIONS 
       AND A TOTAL OF          9 INNER ITERATIONS.
    ------------------------------------------------

 NO OUTPUT CONTROL FOR STRESS PERIOD   10   TIME STEP   28
 
 SOLVING FOR HEAD 
                                                   Max.-Head-Change                         Max.-Flux-Residual
  Residual-Control   Outer-Iter.   Inner-Iter.     Column Row Layer    Maximum-Head-Change  Column Row Layer    Maximum-Flux-Residual          L2-NORM 
          0                 1           2             4    7     1       0.7373246625E-01       4    7    1         0.3872346983E+01      0.8918869522E+01
          0                 2           2             4    7     1      -0.4201525422E-01       4    7    1        -0.2257188022E+01      0.5424012733E+01
          0                 3           2             4    7     1       0.2861069130E-02       4    7    1         0.1580023508E+00      0.3796797197E+00
          0                 4           2             4    7     1      -0.1138446731E-03       4    7    1        -0.6462308687E-02      0.1552892670E-01
          0                 5           1             4    7     1       0.1403754241E-05       4    7    1         0.8189736809E-04      0.1968008130E-03

    ------------------------------------------------
       NWT REQUIRED            5 OUTER ITERATIONS 
       AND A TOTAL OF          9 INNER ITERATIONS.
    ------------------------------------------------

 NO OUTPUT CONTROL FOR STRESS PERIOD   10   TIME STEP   29
 
 SOLVING FOR HEAD 
                                                   Max.-Head-Change                         Max.-Flux-Residual
  Residual-Control   Outer-Iter.   Inner-Iter.     Column Row Layer    Maximum-Head-Change  Column Row Layer    Maximum-Flux-Residual          L2-NORM 
          0                 1           2             4    7     1       0.7310821824E-01       4    7    1         0.3839795064E+01      0.8820424792E+01
          0                 2           2             4    7     1      -0.4195451152E-01       4    7    1        -0.2253933085E+01      0.5414863231E+01
          0                 3           2             4    7     1       0.2856932757E-02       4    7    1         0.1577745039E+00      0.3790392484E+00
          0                 4           2             4    7     1      -0.1136800826E-03       4    7    1        -0.6452989720E-02      0.1550273144E-01
          0                 5           1             4    7     1       0.1401724756E-05       4    7    1         0.8177927270E-04      0.1964697849E-03

    ------------------------------------------------
       NWT REQUIRED            5 OUTER ITERATIONS 
       AND A TOTAL OF          9 INNER ITERATIONS.
    ------------------------------------------------

 NO OUTPUT CONTROL FOR STRESS PERIOD   10   TIME STEP   30



 STREAM LISTING     PERIOD     10   STEP       30

 LAYER ROW COL. STREAM  RCH.  FLOW INTO     FLOW TO   FLOW OUT OF   OVRLND.     DIRECT     STREAM       STREAM     STREAM     STREAM   STREAMBED  STREAMBED
                SEG.NO.  NO.  STRM. RCH.    AQUIFER    STRM. RCH.    RUNOFF     PRECIP       ET          HEAD       DEPTH      WIDTH   CONDCTNC.   GRADIENT

   1    1    1     1     1    4.7000E+01  3.2684E-01   4.6673E+01  0.000E+00  0.000E+00  0.000E+00  1.09443E+03  1.380E+00  1.658E+01  7.462E-02  1.460E+00
   1    2    2     1     2    4.6673E+01  5.0637E-01   4.6166E+01  0.000E+00  0.000E+00  0.000E+00  1.08944E+03  1.377E+00  1.653E+01  1.157E-01  1.459E+00
   1    3    3     1     3    4.6166E+01  4.3205E-01   4.5734E+01  0.000E+00  0.000E+00  0.000E+00  1.08379E+03  1.374E+00  1.646E+01  9.878E-02  1.458E+00
   1    3    4     1     4    4.5734E+01  3.9802E-01   4.5336E+01  0.000E+00  0.000E+00  0.000E+00  1.07878E+03  1.371E+00  1.641E+01  9.105E-02  1.457E+00
   1    4    5     2     1    4.3336E+01  3.6469E-01   4.2972E+01  0.000E+00  0.000E+00  0.000E+00  1.07361E+03  1.676E+00  1.200E+01  7.800E-02  1.559E+00
   1    5    6     2     2    4.2972E+01  2.8008E-01   4.2692E+01  0.000E+00  0.000E+00  0.000E+00  1.06818E+03  1.668E+00  1.200E+01  6.000E-02  1.556E+00
   1    6    6     2     3    4.2692E+01  2.7969E-01   4.2412E+01  0.000E+00  0.000E+00  0.000E+00  1.06345E+03  1.661E+00  1.200E+01  6.000E-02  1.554E+00
   1    7    6     2     4    4.2412E+01  2.7930E-01   4.2133E+01  0.000E+00  0.000E+00  0.000E+00  1.05873E+03  1.655E+00  1.200E+01  6.000E-02  1.552E+00
   1    8    6     2     5    4.2133E+01  2.7890E-01   4.1854E+01  0.000E+00  0.000E+00  0.000E+00  1.05401E+03  1.648E+00  1.200E+01  6.000E-02  1.549E+00
   1    3    5     3     1    2.0000E+00  2.8252E-01   1.7175E+00  0.000E+00  0.000E+00  0.000E+00  1.07555E+03  1.909E+00  9.636E+00  7.227E-02  1.955E+00
   1    3    6     3     2    1.7175E+00  2.4905E-01   1.4684E+00  0.000E+00  0.000E+00  0.000E+00  1.07264E+03  1.727E+00  8.909E+00  6.682E-02  1.864E+00
   1    3    7     3     3    1.4684E+00  1.9718E-01   1.2712E+00  0.000E+00  0.000E+00  0.000E+00  1.06987E+03  1.555E+00  8.218E+00  5.547E-02  1.777E+00
   1    4    8     3     4    1.2712E+00  2.2567E-01   1.0456E+00  0.000E+00  0.000E+00  0.000E+00  1.06682E+03  1.364E+00  7.455E+00  6.709E-02  1.682E+00
   1    5    8     3     5    1.0456E+00  1.5790E-01   8.8768E-01  0.000E+00  0.000E+00  0.000E+00  1.06362E+03  1.164E+00  6.655E+00  4.991E-02  1.582E+00
   1    6    8     3     6    8.8768E-01  5.5980E-02   8.3170E-01  0.000E+00  0.000E+00  0.000E+00  1.06158E+03  1.036E+00  6.145E+00  1.844E-02  1.518E+00
   1    5   10     4     1    1.0000E+01  9.0919E-02   9.9091E+00  0.000E+00  0.000E+00  0.000E+00  1.07836E+03  6.368E-01  1.000E+01  2.500E-02  1.212E+00
   1    5    9     4     2    9.9091E+00  1.8158E-01   9.7275E+00  0.000E+00  0.000E+00  0.000E+00  1.07154E+03  6.315E-01  1.000E+01  5.000E-02  1.211E+00
   1    6    8     4     3    9.7275E+00  1.2689E-01   9.6006E+00  0.000E+00  0.000E+00  0.000E+00  1.06381E+03  6.256E-01  1.000E+01  3.500E-02  1.209E+00
   1    6    8     5     1    1.0432E+01  2.2686E-01   1.0205E+01  0.000E+00  0.000E+00  0.000E+00  1.05868E+03  6.790E-01  1.542E+01  6.166E-02  1.226E+00
   1    7    7     5     2    1.0205E+01  2.7894E-01   9.9265E+00  0.000E+00  0.000E+00  0.000E+00  1.05417E+03  6.732E-01  1.519E+01  7.594E-02  1.224E+00
   1    8    7     5     3    9.9265E+00  1.9221E-01   9.7343E+00  0.000E+00  0.000E+00  0.000E+00  1.04992E+03  6.676E-01  1.497E+01  5.241E-02  1.223E+00
   1    8    6     5     4    9.7343E+00  1.3577E-01   9.5985E+00  0.000E+00  0.000E+00  0.000E+00  1.04691E+03  6.637E-01  1.482E+01  3.706E-02  1.221E+00
   1    9    6     6     1    5.1452E+01  2.9278E-01   5.1159E+01  0.000E+00  0.000E+00  0.000E+00  1.04461E+03  1.880E+00  1.200E+01  6.000E-02  1.627E+00
   1   10    7     6     2    5.1159E+01  2.9239E-01   5.0867E+01  0.000E+00  0.000E+00  0.000E+00  1.04005E+03  1.873E+00  1.200E+01  6.000E-02  1.624E+00
   1   11    7     6     3    5.0867E+01  2.9200E-01   5.0575E+01  0.000E+00  0.000E+00  0.000E+00  1.03550E+03  1.867E+00  1.200E+01  6.000E-02  1.622E+00
   1   12    7     6     4    5.0575E+01  2.9162E-01   5.0283E+01  0.000E+00  0.000E+00  0.000E+00  1.03095E+03  1.860E+00  1.200E+01  6.000E-02  1.620E+00
   1   13    7     6     5    5.0283E+01  1.2612E-02   5.0271E+01  0.000E+00  0.000E+00  0.000E+00  1.02777E+03  1.857E+00  1.200E+01  2.400E-02  1.752E-01
   1   14    9     7     1    1.5000E+02  1.3307E+00   1.4867E+02  0.000E+00  0.000E+00  0.000E+00  1.03987E+03  2.288E+00  5.529E+01  5.593E-01  7.931E-01
   1   13    8     7     2    1.4867E+02  1.7940E+00   1.4688E+02  0.000E+00  0.000E+00  0.000E+00  1.03478E+03  2.279E+00  5.526E+01  6.148E-01  9.727E-01
   1   13    7     7     3    1.4688E+02  1.3682E+00   1.4551E+02  0.000E+00  0.000E+00  0.000E+00  1.02969E+03  2.271E+00  5.522E+01  5.585E-01  8.166E-01
   1   13    6     8     1    1.9578E+02  9.1788E-01   1.9486E+02  0.000E+00  0.000E+00  0.000E+00  1.02498E+03  3.110E+00  4.509E+01  4.595E-01  6.658E-01
   1   13    5     8     2    1.9486E+02  1.4205E-01   1.9472E+02  0.000E+00  0.000E+00  0.000E+00  1.01873E+03  3.107E+00  4.505E+01  4.591E-01  1.031E-01
   1   13    4     8     3    1.9472E+02 -2.5003E+00   1.9722E+02  0.000E+00  0.000E+00  0.000E+00  1.01249E+03  3.114E+00  4.515E+01  4.601E+00 -1.811E-01
   1   13    3     8     4    1.9722E+02 -3.6175E+00   2.0084E+02  0.000E+00  0.000E+00  0.000E+00  1.00626E+03  3.132E+00  4.541E+01  4.628E+00 -2.606E-01
   1   13    2     8     5    2.0084E+02 -2.5915E+00   2.0343E+02  0.000E+00  0.000E+00  0.000E+00  1.00003E+03  3.150E+00  4.568E+01  4.655E+00 -1.856E-01
   1   13    1     8     6    2.0343E+02 -2.0170E+00   2.0544E+02  0.000E+00  0.000E+00  0.000E+00  9.95039E+02  3.164E+00  4.587E+01  2.805E+00 -2.397E-01





UNSATURATED ZONE PACKAGE VOLUMETRIC BUDGET FOR  TIME STEP    30 STRESS PERIOD   10
  ------------------------------------------------------------------------------



     CUMULATIVE VOLUMES      L**3       RATES FOR THIS TIME STEP      L**3/T
     ------------------                 ------------------------

           IN:                                      IN:
           ---                                      ---
        INFILTRATION =   424035692.3415          INFILTRATION =          12.0672

          OUT:                                     OUT:
          ----                                     ----
              UZF ET =   423865603.3253                UZF ET =          12.0675
        UZF RECHARGE =       73224.0000          UZF RECHARGE =       0.0000E+00

            IN - OUT =       96865.0162              IN - OUT =      -3.0041E-04

          STORAGE:                                 STORAGE:
          --------                                 --------
      STORAGE CHANGE =       96863.2805        STORAGE CHANGE =      -3.0057E-04

 PERCENT DISCREPANCY IS DIFFERENCE BETWEEN IN-OUT MINUS CHANGE IN STORAGE
 DIVIDED BY THE AVERAGE OF IN AND OUT TIMES 100

 PERCENT DISCREPANCY =           0.00     PERCENT DISCREPANCY =           0.00






1
  VOLUMETRIC BUDGET FOR AGRICULTURAL FIELDS AT  END OF TIME STEP   30, STRESS PERIOD  10
  ------------------------------------------------------------------------------

     CUMULATIVE VOLUMES      L**3       RATES FOR THIS TIME STEP      L**3/T
     ------------------                 ------------------------

           IN:                                      IN:
           ---                                      ---
               AG WELLS  =   403901728.0000                 AG WELLS  =          11.2197
      DIVERSION SEGMENTS =           0.0000        DIVERSION SEGMENTS =           0.0000
       IRRIGATION PONDS  =           0.0000         IRRIGATION PONDS  =           0.0000
           GW IRRIGATION =           0.0000             GW IRRIGATION =           0.0000
           SW IRRIGATION =           0.0000             SW IRRIGATION =           0.0000
        SYSTEM LOSSES GW =           0.0000          SYSTEM LOSSES GW =           0.0000
        SYSTEM LOSSES SW =           0.0000          SYSTEM LOSSES SW =           0.0000

                TOTAL IN =   403901728.0000                  TOTAL IN =          11.2197

          OUT:                                     OUT:
          ----                                     ----
               AG WELLS  =           0.0000                 AG WELLS  =           0.0000
      DIVERSION SEGMENTS =           0.0000        DIVERSION SEGMENTS =           0.0000
       IRRIGATION PONDS  =           0.0000         IRRIGATION PONDS  =           0.0000
           GW IRRIGATION =   403901728.0000             GW IRRIGATION =          11.2197
           SW IRRIGATION =           0.0000             SW IRRIGATION =           0.0000
        SYSTEM LOSSES GW =           0.0000          SYSTEM LOSSES GW =           0.0000
        SYSTEM LOSSES SW =           0.0000          SYSTEM LOSSES SW =           0.0000

               TOTAL OUT =   403901728.0000                 TOTAL OUT =          11.2197

                IN - OUT =           0.0000                  IN - OUT =           0.0000

     PERCENT DISCREPANCY =           0.00         PERCENT DISCREPANCY =           0.00



1
  VOLUMETRIC BUDGET FOR ENTIRE MODEL AT END OF TIME STEP   30, STRESS PERIOD  10
  ------------------------------------------------------------------------------

     CUMULATIVE VOLUMES      L**3       RATES FOR THIS TIME STEP      L**3/T
     ------------------                 ------------------------

           IN:                                      IN:
           ---                                      ---
             STORAGE     =   439177568.0000               STORAGE     =          19.2966
       CONSTANT HEAD     =           0.0000         CONSTANT HEAD     =           0.0000
     HEAD DEP BOUNDS     =     6781340.0000       HEAD DEP BOUNDS     =           0.2854
      STREAM LEAKAGE     =   302962880.0000        STREAM LEAKAGE     =          12.2816
        UZF RECHARGE     =       73223.9531          UZF RECHARGE     =           0.0000
               GW ET     =           0.0000                 GW ET     =           0.0000
     SURFACE LEAKAGE     =           0.0000       SURFACE LEAKAGE     =           0.0000
           AG WELLS      =           0.0000             AG WELLS      =           0.0000

                TOTAL IN =   748995008.0000                  TOTAL IN =          31.8637

          OUT:                                     OUT:
          ----                                     ----
             STORAGE     =    83520464.0000               STORAGE     =           9.3576
       CONSTANT HEAD     =           0.0000         CONSTANT HEAD     =           0.0000
     HEAD DEP BOUNDS     =     7020257.0000       HEAD DEP BOUNDS     =           0.2948
      STREAM LEAKAGE     =   240815360.0000        STREAM LEAKAGE     =          10.7263
        UZF RECHARGE     =           0.0000          UZF RECHARGE     =           0.0000
               GW ET     =    13740542.0000                 GW ET     =           0.2653
     SURFACE LEAKAGE     =           0.0000       SURFACE LEAKAGE     =           0.0000
           AG WELLS      =   403901728.0000             AG WELLS      =          11.2197

               TOTAL OUT =   748998400.0000                 TOTAL OUT =          31.8637

                IN - OUT =       -3392.0000                  IN - OUT =       1.1444E-05

     PERCENT DISCREPANCY =          -0.00         PERCENT DISCREPANCY =           0.00






         TIME SUMMARY AT END OF TIME STEP   30 IN STRESS PERIOD   10
                    SECONDS     MINUTES      HOURS       DAYS        YEARS
                    -----------------------------------------------------------
   TIME STEP LENGTH  87667.      1461.1      24.352      1.0147     2.77799E-03
 STRESS PERIOD TIME 2.63000E+06  43833.      730.56      30.440     8.33397E-02
         TOTAL TIME 2.37564E+07 3.95940E+05  6599.0      274.96     0.75279    
1
1
                            STRESS PERIOD NO.   11, LENGTH =   2630000.    
                            -----------------------------------------------

                              NUMBER OF TIME STEPS =    30

                               MULTIPLIER FOR DELT =     1.000

                            INITIAL TIME STEP SIZE =   87666.66    

 REUSING NON-PARAMETER GHB CELLS FROM LAST STRESS PERIOD

      2 GHB CELLS

 REUSING STREAM SEGMENT DATA FROM LAST STRESS PERIOD



            AREAL INFILTRATION RATE
 READING ON UNIT   19 WITH FORMAT: (FREE)              

            1           2           3           4           5           6           7           8           9          10
 ........................................................................................................................
   1   1.0000E-10  2.0000E-10   0.000       0.000       0.000       0.000       0.000       0.000       0.000       0.000    
   2   2.0000E-10  1.0000E-10  2.0000E-10   0.000       0.000      8.0000E-10  8.0000E-10  5.0000E-10   0.000       0.000    
   3    0.000      5.0000E-10  1.0000E-10  1.0000E-10  8.0000E-10  8.0000E-10  5.0000E-10  5.0000E-10   0.000       0.000    
   4   8.0000E-10  5.0000E-10  1.0000E-10  1.0000E-10  1.0000E-10  1.0000E-10  1.0000E-10  1.0000E-10  2.0000E-10   0.000    
   5   8.0000E-10  5.0000E-10  1.0000E-10  1.0000E-10  1.0000E-10  1.0000E-10  1.0000E-10  1.0000E-10  1.0000E-10  1.0000E-10
   6   8.0000E-10  5.0000E-10  5.0000E-10  2.0000E-10  2.0000E-10  1.0000E-10  1.0000E-10  1.0000E-10  1.0000E-10  5.0000E-10
   7   8.0000E-10  5.0000E-10  5.0000E-10  2.0000E-10  2.0000E-10  1.0000E-10  1.0000E-10  2.0000E-10  2.0000E-10   0.000    
   8    0.000      5.0000E-10  5.0000E-10  2.0000E-10  2.0000E-10  1.0000E-10  1.0000E-10  2.0000E-10  5.0000E-10   0.000    
   9    0.000      5.0000E-10  5.0000E-10  2.0000E-10  2.0000E-10  1.0000E-10  1.0000E-10  2.0000E-10  5.0000E-10   0.000    
  10    0.000      5.0000E-10  5.0000E-10  2.0000E-10  2.0000E-10  1.0000E-10  1.0000E-10  2.0000E-10  5.0000E-10  8.0000E-10
  11    0.000      1.0000E-10  1.0000E-10  1.0000E-10  1.0000E-10  1.0000E-10  1.0000E-10  2.0000E-10  5.0000E-10   0.000    
  12   1.0000E-10  1.0000E-10  1.0000E-10  1.0000E-10  1.0000E-10  1.0000E-10  1.0000E-10  1.0000E-10  2.0000E-10   0.000    
  13   1.0000E-10  1.0000E-10  2.0000E-10  2.0000E-10  2.0000E-10  2.0000E-10  2.0000E-10  1.0000E-10  1.0000E-10   0.000    
  14    0.000      2.0000E-10  5.0000E-10  5.0000E-10  5.0000E-10  5.0000E-10  5.0000E-10  2.0000E-10  1.0000E-10   0.000    
  15    0.000       0.000      8.0000E-10  8.0000E-10  8.0000E-10  8.0000E-10   0.000       0.000       0.000       0.000    

                  ET RATE =  5.000000E-09

 USING ET EXTINCTION DEPTH FROM PREVIOUS STRESS PERIOD. CURRENT PERIOD IS:      11

 USING EXTINCTION WATER CONTENT FROM PREVIOUS STRESS PERIOD. CURRENT PERIOD IS:      11

 USING AIR ENTRY PRESSURE FROM PREVIOUS STRESS PERIOD. CURRENT PERIOD IS:      11

 USING ROOT PRESSURE HEAD FROM PREVIOUS STRESS PERIOD. CURRENT PERIOD IS:      11

 USING ROOT ACTIVITY FROM PREVIOUS STRESS PERIOD. CURRENT PERIOD IS:      11

 PROCESSING AG STRESS PERIOD DATA

 READING AG STRESS PERIOD DATA

 READING IRRIGATION WELL

 NO IRRPOND OR REUSING IRRPOND DATA FROM LAST STRESS PERIOD

 END PROCESSING AG STRESS PERIOD DATA OPTIONS
 
 SOLVING FOR HEAD 
                                                   Max.-Head-Change                         Max.-Flux-Residual
  Residual-Control   Outer-Iter.   Inner-Iter.     Column Row Layer    Maximum-Head-Change  Column Row Layer    Maximum-Flux-Residual          L2-NORM 
          0                 1           2             4    7     1       0.7248706328E-01       4    7    1         0.3807371642E+01      0.8732021686E+01
          0                 2           2             4    7     1      -0.7051068717E-02       4    7    1        -0.3807408814E+00      0.8731935090E+00
          0                 3           2             4    7     1       0.4801511108E-03       4    7    1         0.2665183803E-01      0.6112303306E-01
          0                 4           1             4    7     1      -0.1910566429E-04       4    7    1        -0.1090061859E-02      0.2499920720E-02

    ------------------------------------------------
       NWT REQUIRED            4 OUTER ITERATIONS 
       AND A TOTAL OF          7 INNER ITERATIONS.
    ------------------------------------------------

 NO OUTPUT CONTROL FOR STRESS PERIOD   11   TIME STEP    1
 
 SOLVING FOR HEAD 
                                                   Max.-Head-Change                         Max.-Flux-Residual
  Residual-Control   Outer-Iter.   Inner-Iter.     Column Row Layer    Maximum-Head-Change  Column Row Layer    Maximum-Flux-Residual          L2-NORM 
          0                 1           2             4    7     1       0.7168345747E-01       4    7    1         0.3766268322E+01      0.8563616139E+01
          0                 2           2             4    7     1      -0.6972902042E-02       4    7    1        -0.3766306992E+00      0.8563220377E+00
          0                 3           2             4    7     1       0.4748282281E-03       4    7    1         0.2636412374E-01      0.5993916024E-01
          0                 4           1             4    7     1      -0.1889386174E-04       4    7    1        -0.1078294344E-02      0.2451322075E-02

    ------------------------------------------------
       NWT REQUIRED            4 OUTER ITERATIONS 
       AND A TOTAL OF          7 INNER ITERATIONS.
    ------------------------------------------------

 NO OUTPUT CONTROL FOR STRESS PERIOD   11   TIME STEP    2
 
 SOLVING FOR HEAD 
                                                   Max.-Head-Change                         Max.-Flux-Residual
  Residual-Control   Outer-Iter.   Inner-Iter.     Column Row Layer    Maximum-Head-Change  Column Row Layer    Maximum-Flux-Residual          L2-NORM 
          0                 1           2             4    7     1       0.7086938554E-01       4    7    1         0.3724522809E+01      0.8389638309E+01
          0                 2           2             4    7     1      -0.6893716943E-02       4    7    1        -0.3724562735E+00      0.8389290243E+00
          0                 3           2             4    7     1       0.4694359975E-03       4    7    1         0.2607191263E-01      0.5872193028E-01
          0                 4           1             4    7     1      -0.1867929981E-04       4    7    1        -0.1066342879E-02      0.2401519826E-02

    ------------------------------------------------
       NWT REQUIRED            4 OUTER ITERATIONS 
       AND A TOTAL OF          7 INNER ITERATIONS.
    ------------------------------------------------

 NO OUTPUT CONTROL FOR STRESS PERIOD   11   TIME STEP    3
 
 SOLVING FOR HEAD 
                                                   Max.-Head-Change                         Max.-Flux-Residual
  Residual-Control   Outer-Iter.   Inner-Iter.     Column Row Layer    Maximum-Head-Change  Column Row Layer    Maximum-Flux-Residual          L2-NORM 
          0                 1           2             4    7     1       0.7004650594E-01       4    7    1         0.3682227320E+01      0.8222235544E+01
          0                 2           2             4    7     1      -0.6813674768E-02       4    7    1        -0.3682268283E+00      0.8221930656E+00
          0                 3           2             4    7     1       0.4639854072E-03       4    7    1         0.2577585037E-01      0.5755077538E-01
          0                 4           1             4    7     1      -0.1846241622E-04       4    7    1        -0.1054233936E-02      0.2353637887E-02

    ------------------------------------------------
       NWT REQUIRED            4 OUTER ITERATIONS 
       AND A TOTAL OF          7 INNER ITERATIONS.
    ------------------------------------------------

 NO OUTPUT CONTROL FOR STRESS PERIOD   11   TIME STEP    4
 
 SOLVING FOR HEAD 
                                                   Max.-Head-Change                         Max.-Flux-Residual
  Residual-Control   Outer-Iter.   Inner-Iter.     Column Row Layer    Maximum-Head-Change  Column Row Layer    Maximum-Flux-Residual          L2-NORM 
          0                 1           2             4    7     1       0.6921636931E-01       4    7    1         0.3639467842E+01      0.8061014747E+01
          0                 2           2             4    7     1      -0.6732926379E-02       4    7    1        -0.3639509639E+00      0.8060746790E+00
          0                 3           2             4    7     1       0.4584867286E-03       4    7    1         0.2547653893E-01      0.5642276251E-01
          0                 4           1             4    7     1      -0.1824361852E-04       4    7    1        -0.1041992078E-02      0.2307532575E-02

    ------------------------------------------------
       NWT REQUIRED            4 OUTER ITERATIONS 
       AND A TOTAL OF          7 INNER ITERATIONS.
    ------------------------------------------------

 NO OUTPUT CONTROL FOR STRESS PERIOD   11   TIME STEP    5
 
 SOLVING FOR HEAD 
                                                   Max.-Head-Change                         Max.-Flux-Residual
  Residual-Control   Outer-Iter.   Inner-Iter.     Column Row Layer    Maximum-Head-Change  Column Row Layer    Maximum-Flux-Residual          L2-NORM 
          0                 1           2             4    7     1       0.6838067326E-01       4    7    1         0.3596339362E+01      0.7905587116E+01
          0                 2           2             4    7     1      -0.6651636937E-02       4    7    1        -0.3596381811E+00      0.7905352278E+00
          0                 3           2             4    7     1       0.4529512094E-03       4    7    1         0.2517464339E-01      0.5533528818E-01
          0                 4           1             4    7     1      -0.1802335490E-04       4    7    1        -0.1029644533E-02      0.2263076725E-02

    ------------------------------------------------
       NWT REQUIRED            4 OUTER ITERATIONS 
       AND A TOTAL OF          7 INNER ITERATIONS.
    ------------------------------------------------

 NO OUTPUT CONTROL FOR STRESS PERIOD   11   TIME STEP    6
 
 SOLVING FOR HEAD 
                                                   Max.-Head-Change                         Max.-Flux-Residual
  Residual-Control   Outer-Iter.   Inner-Iter.     Column Row Layer    Maximum-Head-Change  Column Row Layer    Maximum-Flux-Residual          L2-NORM 
          0                 1           2             4    7     1       0.6754074519E-01       4    7    1         0.3552915307E+01      0.7755633357E+01
          0                 2           2             4    7     1      -0.6569935586E-02       4    7    1        -0.3552958242E+00      0.7755427099E+00
          0                 3           2             4    7     1       0.4473876431E-03       4    7    1         0.2487067782E-01      0.5428606502E-01
          0                 4           1             4    7     1      -0.1780197557E-04       4    7    1        -0.1017212332E-02      0.2220173062E-02

    ------------------------------------------------
       NWT REQUIRED            4 OUTER ITERATIONS 
       AND A TOTAL OF          7 INNER ITERATIONS.
    ------------------------------------------------

 NO OUTPUT CONTROL FOR STRESS PERIOD   11   TIME STEP    7
 
 SOLVING FOR HEAD 
                                                   Max.-Head-Change                         Max.-Flux-Residual
  Residual-Control   Outer-Iter.   Inner-Iter.     Column Row Layer    Maximum-Head-Change  Column Row Layer    Maximum-Flux-Residual          L2-NORM 
          0                 1           2             4    7     1       0.6669807039E-01       4    7    1         0.3509279095E+01      0.7610828678E+01
          0                 2           2             4    7     1      -0.6487966828E-02       4    7    1        -0.3509322364E+00      0.7610647611E+00
          0                 3           2             4    7     1       0.4418058689E-03       4    7    1         0.2456522621E-01      0.5327284274E-01
          0                 4           1             4    7     1      -0.1757987152E-04       4    7    1        -0.1004719337E-02      0.2178748069E-02

    ------------------------------------------------
       NWT REQUIRED            4 OUTER ITERATIONS 
       AND A TOTAL OF          7 INNER ITERATIONS.
    ------------------------------------------------

 NO OUTPUT CONTROL FOR STRESS PERIOD   11   TIME STEP    8
 
 SOLVING FOR HEAD 
                                                   Max.-Head-Change                         Max.-Flux-Residual
  Residual-Control   Outer-Iter.   Inner-Iter.     Column Row Layer    Maximum-Head-Change  Column Row Layer    Maximum-Flux-Residual          L2-NORM 
          0                 1           2             4    7     1       0.6585390479E-01       4    7    1         0.3465500441E+01      0.7470899236E+01
          0                 2           2             4    7     1      -0.6405852855E-02       4    7    1        -0.3465543909E+00      0.7470739978E+00
          0                 3           2             4    7     1       0.4362142089E-03       4    7    1         0.2425877671E-01      0.5229359837E-01
          0                 4           1             4    7     1      -0.1735737431E-04       4    7    1        -0.9921855406E-03      0.2138714794E-02

    ------------------------------------------------
       NWT REQUIRED            4 OUTER ITERATIONS 
       AND A TOTAL OF          7 INNER ITERATIONS.
    ------------------------------------------------

 NO OUTPUT CONTROL FOR STRESS PERIOD   11   TIME STEP    9
 
 SOLVING FOR HEAD 
                                                   Max.-Head-Change                         Max.-Flux-Residual
  Residual-Control   Outer-Iter.   Inner-Iter.     Column Row Layer    Maximum-Head-Change  Column Row Layer    Maximum-Flux-Residual          L2-NORM 
          0                 1           2             4    7     1       0.6500926981E-01       4    7    1         0.3421637161E+01      0.7335567066E+01
          0                 2           2             4    7     1      -0.6323692675E-02       4    7    1        -0.3421680706E+00      0.7335339450E+00
          0                 3           2             4    7     1       0.4306194042E-03       4    7    1         0.2395173409E-01      0.5134599599E-01
          0                 4           1             4    7     1      -0.1713475184E-04       4    7    1        -0.9796274899E-03      0.2099984004E-02

    ------------------------------------------------
       NWT REQUIRED            4 OUTER ITERATIONS 
       AND A TOTAL OF          7 INNER ITERATIONS.
    ------------------------------------------------

 NO OUTPUT CONTROL FOR STRESS PERIOD   11   TIME STEP   10
 
 SOLVING FOR HEAD 
                                                   Max.-Head-Change                         Max.-Flux-Residual
  Residual-Control   Outer-Iter.   Inner-Iter.     Column Row Layer    Maximum-Head-Change  Column Row Layer    Maximum-Flux-Residual          L2-NORM 
          0                 1           2             4    7     1       0.6416523963E-01       4    7    1         0.3377749532E+01      0.7204596131E+01
          0                 2           2             4    7     1      -0.6241591891E-02       4    7    1        -0.3377793044E+00      0.7204473620E+00
          0                 3           2             4    7     1       0.4250286456E-03       4    7    1         0.2364452037E-01      0.5043008679E-01
          0                 4           1             4    7     1      -0.1691229054E-04       4    7    1        -0.9670624304E-03      0.2062501526E-02

    ------------------------------------------------
       NWT REQUIRED            4 OUTER ITERATIONS 
       AND A TOTAL OF          7 INNER ITERATIONS.
    ------------------------------------------------

 NO OUTPUT CONTROL FOR STRESS PERIOD   11   TIME STEP   11
 
 SOLVING FOR HEAD 
                                                   Max.-Head-Change                         Max.-Flux-Residual
  Residual-Control   Outer-Iter.   Inner-Iter.     Column Row Layer    Maximum-Head-Change  Column Row Layer    Maximum-Flux-Residual          L2-NORM 
          0                 1           2             4    7     1       0.6332294078E-01       4    7    1         0.3333900496E+01      0.7077776169E+01
          0                 2           2             4    7     1      -0.6159659006E-02       4    7    1        -0.3333943875E+00      0.7077668438E+00
          0                 3           2             4    7     1       0.4194493210E-03       4    7    1         0.2333757616E-01      0.4954256633E-01
          0                 4           1             4    7     1      -0.1669028355E-04       4    7    1        -0.9545083799E-03      0.2026216529E-02

    ------------------------------------------------
       NWT REQUIRED            4 OUTER ITERATIONS 
       AND A TOTAL OF          7 INNER ITERATIONS.
    ------------------------------------------------

 NO OUTPUT CONTROL FOR STRESS PERIOD   11   TIME STEP   12
 
 SOLVING FOR HEAD 
                                                   Max.-Head-Change                         Max.-Flux-Residual
  Residual-Control   Outer-Iter.   Inner-Iter.     Column Row Layer    Maximum-Head-Change  Column Row Layer    Maximum-Flux-Residual          L2-NORM 
          0                 1           2             4    7     1       0.6248313977E-01       4    7    1         0.3290133913E+01      0.6954868960E+01
          0                 2           2             4    7     1      -0.6077968962E-02       4    7    1        -0.3290177073E+00      0.6954774470E+00
          0                 3           2             4    7     1       0.4138865347E-03       4    7    1         0.2303120861E-01      0.4868242312E-01
          0                 4           1             4    7     1      -0.1646893542E-04       4    7    1        -0.9419779344E-03      0.1991056221E-02

    ------------------------------------------------
       NWT REQUIRED            4 OUTER ITERATIONS 
       AND A TOTAL OF          7 INNER ITERATIONS.
    ------------------------------------------------

 NO OUTPUT CONTROL FOR STRESS PERIOD   11   TIME STEP   13
 
 SOLVING FOR HEAD 
                                                   Max.-Head-Change                         Max.-Flux-Residual
  Residual-Control   Outer-Iter.   Inner-Iter.     Column Row Layer    Maximum-Head-Change  Column Row Layer    Maximum-Flux-Residual          L2-NORM 
          0                 1           2             4    7     1       0.6164667123E-01       4    7    1         0.3246496811E+01      0.6835686382E+01
          0                 2           2             4    7     1      -0.5996602936E-02       4    7    1        -0.3246539673E+00      0.6835492223E+00
          0                 3           2             4    7     1       0.4083458144E-03       4    7    1         0.2272574697E-01      0.4784753505E-01
          0                 4           1             4    7     1      -0.1624846469E-04       4    7    1        -0.9294845265E-03      0.1956917243E-02

    ------------------------------------------------
       NWT REQUIRED            4 OUTER ITERATIONS 
       AND A TOTAL OF          7 INNER ITERATIONS.
    ------------------------------------------------

 NO OUTPUT CONTROL FOR STRESS PERIOD   11   TIME STEP   14
 
 SOLVING FOR HEAD 
                                                   Max.-Head-Change                         Max.-Flux-Residual
  Residual-Control   Outer-Iter.   Inner-Iter.     Column Row Layer    Maximum-Head-Change  Column Row Layer    Maximum-Flux-Residual          L2-NORM 
          0                 1           2             4    7     1       0.6081457026E-01       4    7    1         0.3203047076E+01      0.6720068986E+01
          0                 2           2             4    7     1      -0.5915661701E-02       4    7    1        -0.3203089571E+00      0.6719996079E+00
          0                 3           2             4    7     1       0.4028340217E-03       4    7    1         0.2242159648E-01      0.4703917918E-01
          0                 4           1             4    7     1      -0.1602914557E-04       4    7    1        -0.9170447670E-03      0.1923873384E-02

    ------------------------------------------------
       NWT REQUIRED            4 OUTER ITERATIONS 
       AND A TOTAL OF          7 INNER ITERATIONS.
    ------------------------------------------------

 NO OUTPUT CONTROL FOR STRESS PERIOD   11   TIME STEP   15
 
 SOLVING FOR HEAD 
                                                   Max.-Head-Change                         Max.-Flux-Residual
  Residual-Control   Outer-Iter.   Inner-Iter.     Column Row Layer    Maximum-Head-Change  Column Row Layer    Maximum-Flux-Residual          L2-NORM 
          0                 1           2             4    7     1       0.5998711657E-01       4    7    1         0.3159801846E+01      0.6607824894E+01
          0                 2           2             4    7     1      -0.5835172403E-02       4    7    1        -0.3159843912E+00      0.6607760755E+00
          0                 3           2             4    7     1       0.3973530044E-03       4    7    1         0.2211887713E-01      0.4625358981E-01
          0                 4           1             4    7     1      -0.1581105038E-04       4    7    1        -0.9046635128E-03      0.1891740337E-02

    ------------------------------------------------
       NWT REQUIRED            4 OUTER ITERATIONS 
       AND A TOTAL OF          7 INNER ITERATIONS.
    ------------------------------------------------

 NO OUTPUT CONTROL FOR STRESS PERIOD   11   TIME STEP   16
 
 SOLVING FOR HEAD 
                                                   Max.-Head-Change                         Max.-Flux-Residual
  Residual-Control   Outer-Iter.   Inner-Iter.     Column Row Layer    Maximum-Head-Change  Column Row Layer    Maximum-Flux-Residual          L2-NORM 
          0                 1           2             4    7     1       0.5916535417E-01       4    7    1         0.3116819464E+01      0.6498810502E+01
          0                 2           2             4    7     1      -0.5755236634E-02       4    7    1        -0.3116861049E+00      0.6498754480E+00
          0                 3           2             4    7     1       0.3919096822E-03       4    7    1         0.2181799743E-01      0.4549062563E-01
          0                 4           1             4    7     1      -0.1559445576E-04       4    7    1        -0.8923575228E-03      0.1860529017E-02

    ------------------------------------------------
       NWT REQUIRED            4 OUTER ITERATIONS 
       AND A TOTAL OF          7 INNER ITERATIONS.
    ------------------------------------------------

 NO OUTPUT CONTROL FOR STRESS PERIOD   11   TIME STEP   17
 
 SOLVING FOR HEAD 
                                                   Max.-Head-Change                         Max.-Flux-Residual
  Residual-Control   Outer-Iter.   Inner-Iter.     Column Row Layer    Maximum-Head-Change  Column Row Layer    Maximum-Flux-Residual          L2-NORM 
          0                 1           2             4    7     1       0.5834957963E-01       4    7    1         0.3074117526E+01      0.6392863844E+01
          0                 2           2             4    7     1      -0.5675883251E-02       4    7    1        -0.3074158583E+00      0.6392814623E+00
          0                 3           2             4    7     1       0.3865060182E-03       4    7    1         0.2151908052E-01      0.4474911051E-01
          0                 4           1             4    7     1      -0.1537943885E-04       4    7    1        -0.8801318018E-03      0.1830205693E-02

    ------------------------------------------------
       NWT REQUIRED            4 OUTER ITERATIONS 
       AND A TOTAL OF          7 INNER ITERATIONS.
    ------------------------------------------------

 NO OUTPUT CONTROL FOR STRESS PERIOD   11   TIME STEP   18
 
 SOLVING FOR HEAD 
                                                   Max.-Head-Change                         Max.-Flux-Residual
  Residual-Control   Outer-Iter.   Inner-Iter.     Column Row Layer    Maximum-Head-Change  Column Row Layer    Maximum-Flux-Residual          L2-NORM 
          0                 1           2             4    7     1       0.5754044408E-01       4    7    1         0.3031733332E+01      0.6289853701E+01
          0                 2           2             4    7     1      -0.5597175600E-02       4    7    1        -0.3031773821E+00      0.6289810356E+00
          0                 3           2             4    7     1       0.3811463269E-03       4    7    1         0.2122238760E-01      0.4402810076E-01
          0                 4           1             4    7     1      -0.1516617141E-04       4    7    1        -0.8679970238E-03      0.1800718592E-02

    ------------------------------------------------
       NWT REQUIRED            4 OUTER ITERATIONS 
       AND A TOTAL OF          7 INNER ITERATIONS.
    ------------------------------------------------

 NO OUTPUT CONTROL FOR STRESS PERIOD   11   TIME STEP   19
 
 SOLVING FOR HEAD 
                                                   Max.-Head-Change                         Max.-Flux-Residual
  Residual-Control   Outer-Iter.   Inner-Iter.     Column Row Layer    Maximum-Head-Change  Column Row Layer    Maximum-Flux-Residual          L2-NORM 
          0                 1           2             4    7     1       0.5673841299E-01       4    7    1         0.2989693335E+01      0.6189644600E+01
          0                 2           2             4    7     1      -0.5519158968E-02       4    7    1        -0.2989733220E+00      0.6189606896E+00
          0                 3           2             4    7     1       0.3758336920E-03       4    7    1         0.2092810383E-01      0.4332674879E-01
          0                 4           1             4    7     1      -0.1495477665E-04       4    7    1        -0.8559608102E-03      0.1772039515E-02

    ------------------------------------------------
       NWT REQUIRED            4 OUTER ITERATIONS 
       AND A TOTAL OF          7 INNER ITERATIONS.
    ------------------------------------------------

 NO OUTPUT CONTROL FOR STRESS PERIOD   11   TIME STEP   20
 
 SOLVING FOR HEAD 
                                                   Max.-Head-Change                         Max.-Flux-Residual
  Residual-Control   Outer-Iter.   Inner-Iter.     Column Row Layer    Maximum-Head-Change  Column Row Layer    Maximum-Flux-Residual          L2-NORM 
          0                 1           2             4    7     1       0.5594390251E-01       4    7    1         0.2948021669E+01      0.6092125027E+01
          0                 2           2             4    7     1      -0.5441873842E-02       4    7    1        -0.2948060922E+00      0.6092092080E+00
          0                 3           2             4    7     1       0.3705708707E-03       4    7    1         0.2063639824E-01      0.4264418675E-01
          0                 4           1             4    7     1      -0.1474536403E-04       4    7    1        -0.8440300253E-03      0.1744124868E-02

    ------------------------------------------------
       NWT REQUIRED            4 OUTER ITERATIONS 
       AND A TOTAL OF          7 INNER ITERATIONS.
    ------------------------------------------------

 NO OUTPUT CONTROL FOR STRESS PERIOD   11   TIME STEP   21
 
 SOLVING FOR HEAD 
                                                   Max.-Head-Change                         Max.-Flux-Residual
  Residual-Control   Outer-Iter.   Inner-Iter.     Column Row Layer    Maximum-Head-Change  Column Row Layer    Maximum-Flux-Residual          L2-NORM 
          0                 1           2             4    7     1       0.5515741427E-01       4    7    1         0.2906747224E+01      0.5997180748E+01
          0                 2           2             4    7     1      -0.5365369016E-02       4    7    1        -0.2906785820E+00      0.5997087275E+00
          0                 3           2             4    7     1       0.3653611851E-03       4    7    1         0.2034747301E-01      0.4197918249E-01
          0                 4           1             4    7     1      -0.1453806620E-04       4    7    1        -0.8322129870E-03      0.1716920198E-02

    ------------------------------------------------
       NWT REQUIRED            4 OUTER ITERATIONS 
       AND A TOTAL OF          7 INNER ITERATIONS.
    ------------------------------------------------

 NO OUTPUT CONTROL FOR STRESS PERIOD   11   TIME STEP   22
 
 SOLVING FOR HEAD 
                                                   Max.-Head-Change                         Max.-Flux-Residual
  Residual-Control   Outer-Iter.   Inner-Iter.     Column Row Layer    Maximum-Head-Change  Column Row Layer    Maximum-Flux-Residual          L2-NORM 
          0                 1           2             4    7     1       0.5437899929E-01       4    7    1         0.2865874074E+01      0.5904695858E+01
          0                 2           2             4    7     1      -0.5289649486E-02       4    7    1        -0.2865911993E+00      0.5904670773E+00
          0                 3           2             4    7     1       0.3602049754E-03       4    7    1         0.2006135673E-01      0.4133230744E-01
          0                 4           1             4    7     1      -0.1433289546E-04       4    7    1        -0.8205107981E-03      0.1690453863E-02

    ------------------------------------------------
       NWT REQUIRED            4 OUTER ITERATIONS 
       AND A TOTAL OF          7 INNER ITERATIONS.
    ------------------------------------------------

 NO OUTPUT CONTROL FOR STRESS PERIOD   11   TIME STEP   23
 
 SOLVING FOR HEAD 
                                                   Max.-Head-Change                         Max.-Flux-Residual
  Residual-Control   Outer-Iter.   Inner-Iter.     Column Row Layer    Maximum-Head-Change  Column Row Layer    Maximum-Flux-Residual          L2-NORM 
          0                 1           2             4    7     1       0.5360922492E-01       4    7    1         0.2825434112E+01      0.5814597916E+01
          0                 2           2             4    7     1      -0.5214770418E-02       4    7    1        -0.2825471336E+00      0.5814576133E+00
          0                 3           2             4    7     1       0.3551059982E-03       4    7    1         0.1977827267E-01      0.4070168143E-01
          0                 4           1             4    7     1      -0.1413000229E-04       4    7    1        -0.8089326377E-03      0.1664680315E-02

    ------------------------------------------------
       NWT REQUIRED            4 OUTER ITERATIONS 
       AND A TOTAL OF          7 INNER ITERATIONS.
    ------------------------------------------------

 NO OUTPUT CONTROL FOR STRESS PERIOD   11   TIME STEP   24
 
 SOLVING FOR HEAD 
                                                   Max.-Head-Change                         Max.-Flux-Residual
  Residual-Control   Outer-Iter.   Inner-Iter.     Column Row Layer    Maximum-Head-Change  Column Row Layer    Maximum-Flux-Residual          L2-NORM 
          0                 1           2             4    7     1       0.5284833593E-01       4    7    1         0.2785442132E+01      0.5726771711E+01
          0                 2           2             4    7     1      -0.5140755635E-02       4    7    1        -0.2785478651E+00      0.5726752614E+00
          0                 3           2             4    7     1       0.3500658760E-03       4    7    1         0.1949832442E-01      0.4008693227E-01
          0                 4           1             4    7     1      -0.1392945093E-04       4    7    1        -0.7974827333E-03      0.1639539988E-02

    ------------------------------------------------
       NWT REQUIRED            4 OUTER ITERATIONS 
       AND A TOTAL OF          7 INNER ITERATIONS.
    ------------------------------------------------

 NO OUTPUT CONTROL FOR STRESS PERIOD   11   TIME STEP   25
 
 SOLVING FOR HEAD 
                                                   Max.-Head-Change                         Max.-Flux-Residual
  Residual-Control   Outer-Iter.   Inner-Iter.     Column Row Layer    Maximum-Head-Change  Column Row Layer    Maximum-Flux-Residual          L2-NORM 
          0                 1           2             4    7     1       0.5209640804E-01       4    7    1         0.2745903510E+01      0.5641126765E+01
          0                 2           2             4    7     1      -0.5067612508E-02       4    7    1        -0.2745939313E+00      0.5641110141E+00
          0                 3           2             4    7     1       0.3450851106E-03       4    7    1         0.1922154961E-01      0.3948747302E-01
          0                 4           1             4    7     1      -0.1373126176E-04       4    7    1        -0.7861626325E-03      0.1615033405E-02

    ------------------------------------------------
       NWT REQUIRED            4 OUTER ITERATIONS 
       AND A TOTAL OF          7 INNER ITERATIONS.
    ------------------------------------------------

 NO OUTPUT CONTROL FOR STRESS PERIOD   11   TIME STEP   26
 
 SOLVING FOR HEAD 
                                                   Max.-Head-Change                         Max.-Flux-Residual
  Residual-Control   Outer-Iter.   Inner-Iter.     Column Row Layer    Maximum-Head-Change  Column Row Layer    Maximum-Flux-Residual          L2-NORM 
          0                 1           2             4    7     1       0.5135376596E-01       4    7    1         0.2706836803E+01      0.5557583000E+01
          0                 2           2             4    7     1      -0.4995372627E-02       4    7    1        -0.2706871882E+00      0.5557568731E+00
          0                 3           2             4    7     1       0.3401658531E-03       4    7    1         0.1894807818E-01      0.3890269902E-01
          0                 4           1             4    7     1      -0.1353551985E-04       4    7    1        -0.7749776316E-03      0.1591103720E-02

    ------------------------------------------------
       NWT REQUIRED            4 OUTER ITERATIONS 
       AND A TOTAL OF          7 INNER ITERATIONS.
    ------------------------------------------------

 NO OUTPUT CONTROL FOR STRESS PERIOD   11   TIME STEP   27
 
 SOLVING FOR HEAD 
                                                   Max.-Head-Change                         Max.-Flux-Residual
  Residual-Control   Outer-Iter.   Inner-Iter.     Column Row Layer    Maximum-Head-Change  Column Row Layer    Maximum-Flux-Residual          L2-NORM 
          0                 1           2             4    7     1       0.5062055829E-01       4    7    1         0.2668251532E+01      0.5476058076E+01
          0                 2           2             4    7     1      -0.4924050450E-02       4    7    1        -0.2668285884E+00      0.5476045864E+00
          0                 3           2             4    7     1       0.3353090873E-03       4    7    1         0.1867797674E-01      0.3833206339E-01
          0                 4           1             4    7     1      -0.1334226471E-04       4    7    1        -0.7639304640E-03      0.1567767503E-02

    ------------------------------------------------
       NWT REQUIRED            4 OUTER ITERATIONS 
       AND A TOTAL OF          7 INNER ITERATIONS.
    ------------------------------------------------

 NO OUTPUT CONTROL FOR STRESS PERIOD   11   TIME STEP   28
 
 SOLVING FOR HEAD 
                                                   Max.-Head-Change                         Max.-Flux-Residual
  Residual-Control   Outer-Iter.   Inner-Iter.     Column Row Layer    Maximum-Head-Change  Column Row Layer    Maximum-Flux-Residual          L2-NORM 
          0                 1           2             4    7     1       0.4989691121E-01       4    7    1         0.2630155402E+01      0.5396488213E+01
          0                 2           2             4    7     1      -0.4853658255E-02       4    7    1        -0.2630189025E+00      0.5396477405E+00
          0                 3           2             4    7     1       0.3305156502E-03       4    7    1         0.1841129930E-01      0.3777509317E-01
          0                 4           1             4    7     1      -0.1315152936E-04       4    7    1        -0.7530233452E-03      0.1544997930E-02

    ------------------------------------------------
       NWT REQUIRED            4 OUTER ITERATIONS 
       AND A TOTAL OF          7 INNER ITERATIONS.
    ------------------------------------------------

 NO OUTPUT CONTROL FOR STRESS PERIOD   11   TIME STEP   29
 
 SOLVING FOR HEAD 
                                                   Max.-Head-Change                         Max.-Flux-Residual
  Residual-Control   Outer-Iter.   Inner-Iter.     Column Row Layer    Maximum-Head-Change  Column Row Layer    Maximum-Flux-Residual          L2-NORM 
          0                 1           2             4    7     1       0.4918292948E-01       4    7    1         0.2592554956E+01      0.5318796550E+01
          0                 2           2             4    7     1      -0.4784206234E-02       4    7    1        -0.2592587849E+00      0.5318786718E+00
          0                 3           2             4    7     1       0.3257862354E-03       4    7    1         0.1814809166E-01      0.3723121743E-01
          0                 4           1             4    7     1      -0.1296334109E-04       4    7    1        -0.7422581177E-03      0.1522714079E-02

    ------------------------------------------------
       NWT REQUIRED            4 OUTER ITERATIONS 
       AND A TOTAL OF          7 INNER ITERATIONS.
    ------------------------------------------------

 NO OUTPUT CONTROL FOR STRESS PERIOD   11   TIME STEP   30



 STREAM LISTING     PERIOD     11   STEP       30

 LAYER ROW COL. STREAM  RCH.  FLOW INTO     FLOW TO   FLOW OUT OF   OVRLND.     DIRECT     STREAM       STREAM     STREAM     STREAM   STREAMBED  STREAMBED
                SEG.NO.  NO.  STRM. RCH.    AQUIFER    STRM. RCH.    RUNOFF     PRECIP       ET          HEAD       DEPTH      WIDTH   CONDCTNC.   GRADIENT

   1    1    1     1     1    3.5000E+01  2.8629E-01   3.4713E+01  0.000E+00  0.000E+00  0.000E+00  1.09434E+03  1.292E+00  1.482E+01  6.670E-02  1.431E+00
   1    2    2     1     2    3.4713E+01  4.4324E-01   3.4270E+01  0.000E+00  0.000E+00  0.000E+00  1.08935E+03  1.289E+00  1.476E+01  1.033E-01  1.430E+00
   1    3    3     1     3    3.4270E+01  3.7790E-01   3.3892E+01  0.000E+00  0.000E+00  0.000E+00  1.08370E+03  1.286E+00  1.470E+01  8.817E-02  1.429E+00
   1    3    4     1     4    3.3892E+01  3.4789E-01   3.3544E+01  0.000E+00  0.000E+00  0.000E+00  1.07869E+03  1.283E+00  1.464E+01  8.123E-02  1.428E+00
   1    4    5     2     1    3.1544E+01  3.4194E-01   3.1202E+01  0.000E+00  0.000E+00  0.000E+00  1.07332E+03  1.384E+00  1.200E+01  7.800E-02  1.461E+00
   1    5    6     2     2    3.1202E+01  2.6255E-01   3.0940E+01  0.000E+00  0.000E+00  0.000E+00  1.06789E+03  1.376E+00  1.200E+01  6.000E-02  1.459E+00
   1    6    6     2     3    3.0940E+01  2.6213E-01   3.0678E+01  0.000E+00  0.000E+00  0.000E+00  1.06316E+03  1.369E+00  1.200E+01  6.000E-02  1.456E+00
   1    7    6     2     4    3.0678E+01  2.6171E-01   3.0416E+01  0.000E+00  0.000E+00  0.000E+00  1.05844E+03  1.362E+00  1.200E+01  6.000E-02  1.454E+00
   1    8    6     2     5    3.0416E+01  2.6129E-01   3.0155E+01  0.000E+00  0.000E+00  0.000E+00  1.05371E+03  1.355E+00  1.200E+01  6.000E-02  1.452E+00
   1    3    5     3     1    2.0000E+00  2.8252E-01   1.7175E+00  0.000E+00  0.000E+00  0.000E+00  1.07555E+03  1.909E+00  9.636E+00  7.227E-02  1.955E+00
   1    3    6     3     2    1.7175E+00  2.4905E-01   1.4684E+00  0.000E+00  0.000E+00  0.000E+00  1.07264E+03  1.727E+00  8.909E+00  6.682E-02  1.864E+00
   1    3    7     3     3    1.4684E+00  1.9718E-01   1.2712E+00  0.000E+00  0.000E+00  0.000E+00  1.06987E+03  1.555E+00  8.218E+00  5.547E-02  1.777E+00
   1    4    8     3     4    1.2712E+00  2.2567E-01   1.0456E+00  0.000E+00  0.000E+00  0.000E+00  1.06682E+03  1.364E+00  7.455E+00  6.709E-02  1.682E+00
   1    5    8     3     5    1.0456E+00  1.5790E-01   8.8768E-01  0.000E+00  0.000E+00  0.000E+00  1.06362E+03  1.164E+00  6.655E+00  4.991E-02  1.582E+00
   1    6    8     3     6    8.8768E-01  5.5980E-02   8.3170E-01  0.000E+00  0.000E+00  0.000E+00  1.06158E+03  1.036E+00  6.145E+00  1.844E-02  1.518E+00
   1    5   10     4     1    1.0000E+01  9.0919E-02   9.9091E+00  0.000E+00  0.000E+00  0.000E+00  1.07836E+03  6.368E-01  1.000E+01  2.500E-02  1.212E+00
   1    5    9     4     2    9.9091E+00  1.8158E-01   9.7275E+00  0.000E+00  0.000E+00  0.000E+00  1.07154E+03  6.315E-01  1.000E+01  5.000E-02  1.211E+00
   1    6    8     4     3    9.7275E+00  1.2689E-01   9.6006E+00  0.000E+00  0.000E+00  0.000E+00  1.06381E+03  6.256E-01  1.000E+01  3.500E-02  1.209E+00
   1    6    8     5     1    1.0432E+01  2.2686E-01   1.0205E+01  0.000E+00  0.000E+00  0.000E+00  1.05868E+03  6.790E-01  1.542E+01  6.166E-02  1.226E+00
   1    7    7     5     2    1.0205E+01  2.7894E-01   9.9265E+00  0.000E+00  0.000E+00  0.000E+00  1.05417E+03  6.732E-01  1.519E+01  7.594E-02  1.224E+00
   1    8    7     5     3    9.9265E+00  1.9221E-01   9.7343E+00  0.000E+00  0.000E+00  0.000E+00  1.04992E+03  6.676E-01  1.497E+01  5.241E-02  1.223E+00
   1    8    6     5     4    9.7343E+00  1.3577E-01   9.5985E+00  0.000E+00  0.000E+00  0.000E+00  1.04691E+03  6.637E-01  1.482E+01  3.706E-02  1.221E+00
   1    9    6     6     1    3.9753E+01  2.7657E-01   3.9477E+01  0.000E+00  0.000E+00  0.000E+00  1.04434E+03  1.609E+00  1.200E+01  6.000E-02  1.536E+00
   1   10    7     6     2    3.9477E+01  2.7616E-01   3.9201E+01  0.000E+00  0.000E+00  0.000E+00  1.03978E+03  1.603E+00  1.200E+01  6.000E-02  1.534E+00
   1   11    7     6     3    3.9201E+01  2.7576E-01   3.8925E+01  0.000E+00  0.000E+00  0.000E+00  1.03523E+03  1.596E+00  1.200E+01  6.000E-02  1.532E+00
   1   12    7     6     4    3.8925E+01  2.7535E-01   3.8649E+01  0.000E+00  0.000E+00  0.000E+00  1.03068E+03  1.589E+00  1.200E+01  6.000E-02  1.530E+00
   1   13    7     6     5    3.8649E+01  6.4706E-03   3.8643E+01  0.000E+00  0.000E+00  0.000E+00  1.02749E+03  1.586E+00  1.200E+01  2.400E-02  8.987E-02
   1   14    9     7     1    1.5000E+02  1.3303E+00   1.4867E+02  0.000E+00  0.000E+00  0.000E+00  1.03987E+03  2.288E+00  5.529E+01  5.593E-01  7.928E-01
   1   13    8     7     2    1.4867E+02  1.7943E+00   1.4688E+02  0.000E+00  0.000E+00  0.000E+00  1.03478E+03  2.279E+00  5.526E+01  6.148E-01  9.729E-01
   1   13    7     7     3    1.4688E+02  1.3767E+00   1.4550E+02  0.000E+00  0.000E+00  0.000E+00  1.02969E+03  2.271E+00  5.522E+01  5.585E-01  8.217E-01
   1   13    6     8     1    1.8414E+02  8.8416E-01   1.8326E+02  0.000E+00  0.000E+00  0.000E+00  1.02491E+03  3.039E+00  4.407E+01  4.491E-01  6.563E-01
   1   13    5     8     2    1.8326E+02  1.2593E-01   1.8313E+02  0.000E+00  0.000E+00  0.000E+00  1.01866E+03  3.036E+00  4.402E+01  4.486E-01  9.357E-02
   1   13    4     8     3    1.8313E+02 -2.6168E+00   1.8575E+02  0.000E+00  0.000E+00  0.000E+00  1.01242E+03  3.044E+00  4.414E+01  4.498E+00 -1.939E-01
   1   13    3     8     4    1.8575E+02 -3.7491E+00   1.8950E+02  0.000E+00  0.000E+00  0.000E+00  1.00619E+03  3.063E+00  4.442E+01  4.527E+00 -2.761E-01
   1   13    2     8     5    1.8950E+02 -2.6146E+00   1.9211E+02  0.000E+00  0.000E+00  0.000E+00  9.99958E+02  3.083E+00  4.470E+01  4.555E+00 -1.913E-01
   1   13    1     8     6    1.9211E+02 -2.0205E+00   1.9413E+02  0.000E+00  0.000E+00  0.000E+00  9.94972E+02  3.097E+00  4.490E+01  2.746E+00 -2.453E-01





UNSATURATED ZONE PACKAGE VOLUMETRIC BUDGET FOR  TIME STEP    30 STRESS PERIOD   11
  ------------------------------------------------------------------------------



     CUMULATIVE VOLUMES      L**3       RATES FOR THIS TIME STEP      L**3/T
     ------------------                 ------------------------

           IN:                                      IN:
           ---                                      ---
        INFILTRATION =   426264617.2142          INFILTRATION =           0.8475

          OUT:                                     OUT:
          ----                                     ----
              UZF ET =   426094554.4054                UZF ET =           0.8475
        UZF RECHARGE =       73224.0000          UZF RECHARGE =       0.0000E+00

            IN - OUT =       96838.8088              IN - OUT =       0.0000E+00

          STORAGE:                                 STORAGE:
          --------                                 --------
      STORAGE CHANGE =       96837.0732        STORAGE CHANGE =       1.6080E-16

 PERCENT DISCREPANCY IS DIFFERENCE BETWEEN IN-OUT MINUS CHANGE IN STORAGE
 DIVIDED BY THE AVERAGE OF IN AND OUT TIMES 100

 PERCENT DISCREPANCY =           0.00     PERCENT DISCREPANCY =           0.00






1
  VOLUMETRIC BUDGET FOR AGRICULTURAL FIELDS AT  END OF TIME STEP   30, STRESS PERIOD  11
  ------------------------------------------------------------------------------

     CUMULATIVE VOLUMES      L**3       RATES FOR THIS TIME STEP      L**3/T
     ------------------                 ------------------------

           IN:                                      IN:
           ---                                      ---
               AG WELLS  =   403901728.0000                 AG WELLS  =           0.0000
      DIVERSION SEGMENTS =           0.0000        DIVERSION SEGMENTS =           0.0000
       IRRIGATION PONDS  =           0.0000         IRRIGATION PONDS  =           0.0000
           GW IRRIGATION =           0.0000             GW IRRIGATION =           0.0000
           SW IRRIGATION =           0.0000             SW IRRIGATION =           0.0000
        SYSTEM LOSSES GW =           0.0000          SYSTEM LOSSES GW =           0.0000
        SYSTEM LOSSES SW =           0.0000          SYSTEM LOSSES SW =           0.0000

                TOTAL IN =   403901728.0000                  TOTAL IN =           0.0000

          OUT:                                     OUT:
          ----                                     ----
               AG WELLS  =           0.0000                 AG WELLS  =           0.0000
      DIVERSION SEGMENTS =           0.0000        DIVERSION SEGMENTS =           0.0000
       IRRIGATION PONDS  =           0.0000         IRRIGATION PONDS  =           0.0000
           GW IRRIGATION =   403901728.0000             GW IRRIGATION =           0.0000
           SW IRRIGATION =           0.0000             SW IRRIGATION =           0.0000
        SYSTEM LOSSES GW =           0.0000          SYSTEM LOSSES GW =           0.0000
        SYSTEM LOSSES SW =           0.0000          SYSTEM LOSSES SW =           0.0000

               TOTAL OUT =   403901728.0000                 TOTAL OUT =           0.0000

                IN - OUT =           0.0000                  IN - OUT =           0.0000

     PERCENT DISCREPANCY =           0.00         PERCENT DISCREPANCY =           0.00



1
  VOLUMETRIC BUDGET FOR ENTIRE MODEL AT END OF TIME STEP   30, STRESS PERIOD  11
  ------------------------------------------------------------------------------

     CUMULATIVE VOLUMES      L**3       RATES FOR THIS TIME STEP      L**3/T
     ------------------                 ------------------------

           IN:                                      IN:
           ---                                      ---
             STORAGE     =   479801056.0000               STORAGE     =          12.7986
       CONSTANT HEAD     =           0.0000         CONSTANT HEAD     =           0.0000
     HEAD DEP BOUNDS     =     7531935.5000       HEAD DEP BOUNDS     =           0.2854
      STREAM LEAKAGE     =   334138176.0000        STREAM LEAKAGE     =          11.8681
        UZF RECHARGE     =       73223.9531          UZF RECHARGE     =           0.0000
               GW ET     =           0.0000                 GW ET     =           0.0000
     SURFACE LEAKAGE     =           0.0000       SURFACE LEAKAGE     =           0.0000
           AG WELLS      =           0.0000             AG WELLS      =           0.0000

                TOTAL IN =   821544384.0000                  TOTAL IN =          24.9521

          OUT:                                     OUT:
          ----                                     ----
             STORAGE     =   125843024.0000               STORAGE     =          13.6540
       CONSTANT HEAD     =           0.0000         CONSTANT HEAD     =           0.0000
     HEAD DEP BOUNDS     =     7792461.5000       HEAD DEP BOUNDS     =           0.2929
      STREAM LEAKAGE     =   270246528.0000        STREAM LEAKAGE     =          11.0010
        UZF RECHARGE     =           0.0000          UZF RECHARGE     =           0.0000
               GW ET     =    13763888.0000                 GW ET     =       4.1686E-03
     SURFACE LEAKAGE     =           0.0000       SURFACE LEAKAGE     =           0.0000
           AG WELLS      =   403901728.0000             AG WELLS      =           0.0000

               TOTAL OUT =   821547648.0000                 TOTAL OUT =          24.9521

                IN - OUT =       -3264.0000                  IN - OUT =       7.6294E-06

     PERCENT DISCREPANCY =          -0.00         PERCENT DISCREPANCY =           0.00






         TIME SUMMARY AT END OF TIME STEP   30 IN STRESS PERIOD   11
                    SECONDS     MINUTES      HOURS       DAYS        YEARS
                    -----------------------------------------------------------
   TIME STEP LENGTH  87667.      1461.1      24.352      1.0147     2.77799E-03
 STRESS PERIOD TIME 2.63000E+06  43833.      730.56      30.440     8.33397E-02
         TOTAL TIME 2.63864E+07 4.39773E+05  7329.5      305.40     0.83613    
1
1
                            STRESS PERIOD NO.   12, LENGTH =   2630000.    
                            -----------------------------------------------

                              NUMBER OF TIME STEPS =    30

                               MULTIPLIER FOR DELT =     1.000

                            INITIAL TIME STEP SIZE =   87666.66    

 REUSING NON-PARAMETER GHB CELLS FROM LAST STRESS PERIOD

      2 GHB CELLS

 REUSING STREAM SEGMENT DATA FROM LAST STRESS PERIOD



            AREAL INFILTRATION RATE
 READING ON UNIT   19 WITH FORMAT: (FREE)              

            1           2           3           4           5           6           7           8           9          10
 ........................................................................................................................
   1   1.0000E-10  2.0000E-10   0.000       0.000       0.000       0.000       0.000       0.000       0.000       0.000    
   2   2.0000E-10  1.0000E-10  2.0000E-10   0.000       0.000      8.0000E-10  8.0000E-10  5.0000E-10   0.000       0.000    
   3    0.000      5.0000E-10  1.0000E-10  1.0000E-10  8.0000E-10  8.0000E-10  5.0000E-10  5.0000E-10   0.000       0.000    
   4   8.0000E-10  5.0000E-10  1.0000E-10  1.0000E-10  1.0000E-10  1.0000E-10  1.0000E-10  1.0000E-10  2.0000E-10   0.000    
   5   8.0000E-10  5.0000E-10  1.0000E-10  1.0000E-10  1.0000E-10  1.0000E-10  1.0000E-10  1.0000E-10  1.0000E-10  1.0000E-10
   6   8.0000E-10  5.0000E-10  5.0000E-10  2.0000E-10  2.0000E-10  1.0000E-10  1.0000E-10  1.0000E-10  1.0000E-10  5.0000E-10
   7   8.0000E-10  5.0000E-10  5.0000E-10  2.0000E-10  2.0000E-10  1.0000E-10  1.0000E-10  2.0000E-10  2.0000E-10   0.000    
   8    0.000      5.0000E-10  5.0000E-10  2.0000E-10  2.0000E-10  1.0000E-10  1.0000E-10  2.0000E-10  5.0000E-10   0.000    
   9    0.000      5.0000E-10  5.0000E-10  2.0000E-10  2.0000E-10  1.0000E-10  1.0000E-10  2.0000E-10  5.0000E-10   0.000    
  10    0.000      5.0000E-10  5.0000E-10  2.0000E-10  2.0000E-10  1.0000E-10  1.0000E-10  2.0000E-10  5.0000E-10  8.0000E-10
  11    0.000      1.0000E-10  1.0000E-10  1.0000E-10  1.0000E-10  1.0000E-10  1.0000E-10  2.0000E-10  5.0000E-10   0.000    
  12   1.0000E-10  1.0000E-10  1.0000E-10  1.0000E-10  1.0000E-10  1.0000E-10  1.0000E-10  1.0000E-10  2.0000E-10   0.000    
  13   1.0000E-10  1.0000E-10  2.0000E-10  2.0000E-10  2.0000E-10  2.0000E-10  2.0000E-10  1.0000E-10  1.0000E-10   0.000    
  14    0.000      2.0000E-10  5.0000E-10  5.0000E-10  5.0000E-10  5.0000E-10  5.0000E-10  2.0000E-10  1.0000E-10   0.000    
  15    0.000       0.000      8.0000E-10  8.0000E-10  8.0000E-10  8.0000E-10   0.000       0.000       0.000       0.000    

                  ET RATE =  5.000000E-10

 USING ET EXTINCTION DEPTH FROM PREVIOUS STRESS PERIOD. CURRENT PERIOD IS:      12

 USING EXTINCTION WATER CONTENT FROM PREVIOUS STRESS PERIOD. CURRENT PERIOD IS:      12

 USING AIR ENTRY PRESSURE FROM PREVIOUS STRESS PERIOD. CURRENT PERIOD IS:      12

 USING ROOT PRESSURE HEAD FROM PREVIOUS STRESS PERIOD. CURRENT PERIOD IS:      12

 USING ROOT ACTIVITY FROM PREVIOUS STRESS PERIOD. CURRENT PERIOD IS:      12

 PROCESSING AG STRESS PERIOD DATA

 READING AG STRESS PERIOD DATA

 READING IRRIGATION WELL

 NO IRRPOND OR REUSING IRRPOND DATA FROM LAST STRESS PERIOD

 END PROCESSING AG STRESS PERIOD DATA OPTIONS
 
 SOLVING FOR HEAD 
                                                   Max.-Head-Change                         Max.-Flux-Residual
  Residual-Control   Outer-Iter.   Inner-Iter.     Column Row Layer    Maximum-Head-Change  Column Row Layer    Maximum-Flux-Residual          L2-NORM 
          0                 1           2             4    7     1       0.4847863136E-01       4    7    1         0.2555455626E+01      0.5260614208E+01
          0                 2           2             4    7     1      -0.4715696168E-02       4    7    1        -0.2555487794E+00      0.5260003439E+00
          0                 3           2             4    7     1       0.3211209644E-03       4    7    1         0.1788839185E-01      0.3681443348E-01
          0                 4           1             4    7     1      -0.1277770543E-04       4    7    1        -0.7316363763E-03      0.1505367708E-02

    ------------------------------------------------
       NWT REQUIRED            4 OUTER ITERATIONS 
       AND A TOTAL OF          7 INNER ITERATIONS.
    ------------------------------------------------

 NO OUTPUT CONTROL FOR STRESS PERIOD   12   TIME STEP    1
 
 SOLVING FOR HEAD 
                                                   Max.-Head-Change                         Max.-Flux-Residual
  Residual-Control   Outer-Iter.   Inner-Iter.     Column Row Layer    Maximum-Head-Change  Column Row Layer    Maximum-Flux-Residual          L2-NORM 
          0                 1           2             4    7     1       0.4778420004E-01       4    7    1         0.2518865680E+01      0.5190016303E+01
          0                 2           2             4    7     1      -0.4648145880E-02       4    7    1        -0.2518897125E+00      0.5189311916E+00
          0                 3           2             4    7     1       0.3165210509E-03       4    7    1         0.1763225775E-01      0.3631859945E-01
          0                 4           1             4    7     1      -0.1259467086E-04       4    7    1        -0.7211604880E-03      0.1485034811E-02

    ------------------------------------------------
       NWT REQUIRED            4 OUTER ITERATIONS 
       AND A TOTAL OF          7 INNER ITERATIONS.
    ------------------------------------------------

 NO OUTPUT CONTROL FOR STRESS PERIOD   12   TIME STEP    2
 
 SOLVING FOR HEAD 
                                                   Max.-Head-Change                         Max.-Flux-Residual
  Residual-Control   Outer-Iter.   Inner-Iter.     Column Row Layer    Maximum-Head-Change  Column Row Layer    Maximum-Flux-Residual          L2-NORM 
          0                 1           2             4    7     1       0.4709967430E-01       4    7    1         0.2482787296E+01      0.5115901431E+01
          0                 2           2             4    7     1      -0.4581559141E-02       4    7    1        -0.2482818025E+00      0.5115285682E+00
          0                 3           2             4    7     1       0.3119867508E-03       4    7    1         0.1737970460E-01      0.3580117072E-01
          0                 4           1             4    7     1      -0.1241424679E-04       4    7    1        -0.7108310413E-03      0.1463868191E-02

    ------------------------------------------------
       NWT REQUIRED            4 OUTER ITERATIONS 
       AND A TOTAL OF          7 INNER ITERATIONS.
    ------------------------------------------------

 NO OUTPUT CONTROL FOR STRESS PERIOD   12   TIME STEP    3
 
 SOLVING FOR HEAD 
                                                   Max.-Head-Change                         Max.-Flux-Residual
  Residual-Control   Outer-Iter.   Inner-Iter.     Column Row Layer    Maximum-Head-Change  Column Row Layer    Maximum-Flux-Residual          L2-NORM 
          0                 1           2             4    7     1       0.4642507083E-01       4    7    1         0.2447222487E+01      0.5043628850E+01
          0                 2           2             4    7     1      -0.4515937578E-02       4    7    1        -0.2447252505E+00      0.5043063532E+00
          0                 3           2             4    7     1       0.3075181759E-03       4    7    1         0.1713074653E-01      0.3529631951E-01
          0                 4           1             4    7     1      -0.1223643797E-04       4    7    1        -0.7006486471E-03      0.1443279020E-02

    ------------------------------------------------
       NWT REQUIRED            4 OUTER ITERATIONS 
       AND A TOTAL OF          7 INNER ITERATIONS.
    ------------------------------------------------

 NO OUTPUT CONTROL FOR STRESS PERIOD   12   TIME STEP    4
 
 SOLVING FOR HEAD 
                                                   Max.-Head-Change                         Max.-Flux-Residual
  Residual-Control   Outer-Iter.   Inner-Iter.     Column Row Layer    Maximum-Head-Change  Column Row Layer    Maximum-Flux-Residual          L2-NORM 
          0                 1           2             4    7     1       0.4576025656E-01       4    7    1         0.2412164795E+01      0.4973117628E+01
          0                 2           2             4    7     1      -0.4451268247E-02       4    7    1        -0.2412194109E+00      0.4972632835E+00
          0                 3           2             4    7     1       0.3031144445E-03       4    7    1         0.1688533834E-01      0.3480349295E-01
          0                 4           1             4    7     1      -0.1206120950E-04       4    7    1        -0.6906114265E-03      0.1423115707E-02

    ------------------------------------------------
       NWT REQUIRED            4 OUTER ITERATIONS 
       AND A TOTAL OF          7 INNER ITERATIONS.
    ------------------------------------------------

 NO OUTPUT CONTROL FOR STRESS PERIOD   12   TIME STEP    5
 
 SOLVING FOR HEAD 
                                                   Max.-Head-Change                         Max.-Flux-Residual
  Residual-Control   Outer-Iter.   Inner-Iter.     Column Row Layer    Maximum-Head-Change  Column Row Layer    Maximum-Flux-Residual          L2-NORM 
          0                 1           2             4    7     1       0.4510549246E-01       4    7    1         0.2377629289E+01      0.4904284692E+01
          0                 2           2             4    7     1      -0.4387576534E-02       4    7    1        -0.2377657907E+00      0.4903861614E+00
          0                 3           2             4    7     1       0.2987772848E-03       4    7    1         0.1664358546E-01      0.3432304738E-01
          0                 4           1             4    7     1      -0.1188862955E-04       4    7    1        -0.6807237176E-03      0.1403563602E-02

    ------------------------------------------------
       NWT REQUIRED            4 OUTER ITERATIONS 
       AND A TOTAL OF          7 INNER ITERATIONS.
    ------------------------------------------------

 NO OUTPUT CONTROL FOR STRESS PERIOD   12   TIME STEP    6
 
 SOLVING FOR HEAD 
                                                   Max.-Head-Change                         Max.-Flux-Residual
  Residual-Control   Outer-Iter.   Inner-Iter.     Column Row Layer    Maximum-Head-Change  Column Row Layer    Maximum-Flux-Residual          L2-NORM 
          0                 1           2             4    7     1       0.4446047481E-01       4    7    1         0.2343600208E+01      0.4837063897E+01
          0                 2           2             4    7     1      -0.4324832899E-02       4    7    1        -0.2343628139E+00      0.4836689566E+00
          0                 3           2             4    7     1       0.2945046855E-03       4    7    1         0.1640537763E-01      0.3385328780E-01
          0                 4           1             4    7     1      -0.1171861889E-04       4    7    1        -0.6709809950E-03      0.1384370631E-02

    ------------------------------------------------
       NWT REQUIRED            4 OUTER ITERATIONS 
       AND A TOTAL OF          7 INNER ITERATIONS.
    ------------------------------------------------

 NO OUTPUT CONTROL FOR STRESS PERIOD   12   TIME STEP    7
 
 SOLVING FOR HEAD 
                                                   Max.-Head-Change                         Max.-Flux-Residual
  Residual-Control   Outer-Iter.   Inner-Iter.     Column Row Layer    Maximum-Head-Change  Column Row Layer    Maximum-Flux-Residual          L2-NORM 
          0                 1           2             4    7     1       0.4382557251E-01       4    7    1         0.2310098425E+01      0.4771388471E+01
          0                 2           2             4    7     1      -0.4263073227E-02       4    7    1        -0.2310125679E+00      0.4771050966E+00
          0                 3           2             4    7     1       0.2902990908E-03       4    7    1         0.1617086096E-01      0.3339418309E-01
          0                 4           1             4    7     1      -0.1155127448E-04       4    7    1        -0.6613892619E-03      0.1365620373E-02

    ------------------------------------------------
       NWT REQUIRED            4 OUTER ITERATIONS 
       AND A TOTAL OF          7 INNER ITERATIONS.
    ------------------------------------------------

 NO OUTPUT CONTROL FOR STRESS PERIOD   12   TIME STEP    8
 
 SOLVING FOR HEAD 
                                                   Max.-Head-Change                         Max.-Flux-Residual
  Residual-Control   Outer-Iter.   Inner-Iter.     Column Row Layer    Maximum-Head-Change  Column Row Layer    Maximum-Flux-Residual          L2-NORM 
          0                 1           2             4    7     1       0.4320032117E-01       4    7    1         0.2277099121E+01      0.4707188830E+01
          0                 2           2             4    7     1      -0.4202252344E-02       4    7    1        -0.2277125709E+00      0.4706894491E+00
          0                 3           2             4    7     1       0.2861574234E-03       4    7    1         0.1593986169E-01      0.3294545617E-01
          0                 4           1             4    7     1      -0.1138647335E-04       4    7    1        -0.6519413582E-03      0.1347291755E-02

    ------------------------------------------------
       NWT REQUIRED            4 OUTER ITERATIONS 
       AND A TOTAL OF          7 INNER ITERATIONS.
    ------------------------------------------------

 NO OUTPUT CONTROL FOR STRESS PERIOD   12   TIME STEP    9
 
 SOLVING FOR HEAD 
                                                   Max.-Head-Change                         Max.-Flux-Residual
  Residual-Control   Outer-Iter.   Inner-Iter.     Column Row Layer    Maximum-Head-Change  Column Row Layer    Maximum-Flux-Residual          L2-NORM 
          0                 1           2             4    7     1       0.4258506760E-01       4    7    1         0.2244622168E+01      0.4644420507E+01
          0                 2           2             4    7     1      -0.4142403988E-02       4    7    1        -0.2244648101E+00      0.4644158776E+00
          0                 3           2             4    7     1       0.2820819818E-03       4    7    1         0.1571251895E-01      0.3250661877E-01
          0                 4           1             4    7     1      -0.1122430760E-04       4    7    1        -0.6426430439E-03      0.1329387862E-02

    ------------------------------------------------
       NWT REQUIRED            4 OUTER ITERATIONS 
       AND A TOTAL OF          7 INNER ITERATIONS.
    ------------------------------------------------

 NO OUTPUT CONTROL FOR STRESS PERIOD   12   TIME STEP   10
 
 SOLVING FOR HEAD 
                                                   Max.-Head-Change                         Max.-Flux-Residual
  Residual-Control   Outer-Iter.   Inner-Iter.     Column Row Layer    Maximum-Head-Change  Column Row Layer    Maximum-Flux-Residual          L2-NORM 
          0                 1           2             4    7     1       0.4197946063E-01       4    7    1         0.2212648921E+01      0.4583023382E+01
          0                 2           2             4    7     1      -0.4083494000E-02       4    7    1        -0.2212674209E+00      0.4582790155E+00
          0                 3           2             4    7     1       0.2780704394E-03       4    7    1         0.1548870224E-01      0.3207728759E-01
          0                 4           1             4    7     1      -0.1106468491E-04       4    7    1        -0.6334889240E-03      0.1311832007E-02

    ------------------------------------------------
       NWT REQUIRED            4 OUTER ITERATIONS 
       AND A TOTAL OF          7 INNER ITERATIONS.
    ------------------------------------------------

 NO OUTPUT CONTROL FOR STRESS PERIOD   12   TIME STEP   11
 
 SOLVING FOR HEAD 
                                                   Max.-Head-Change                         Max.-Flux-Residual
  Residual-Control   Outer-Iter.   Inner-Iter.     Column Row Layer    Maximum-Head-Change  Column Row Layer    Maximum-Flux-Residual          L2-NORM 
          0                 1           2             4    7     1       0.4138355475E-01       4    7    1         0.2181183150E+01      0.4522948969E+01
          0                 2           2             4    7     1      -0.4025527680E-02       4    7    1        -0.2181207806E+00      0.4522740917E+00
          0                 3           2             4    7     1       0.2741231566E-03       4    7    1         0.1526843790E-01      0.3165717597E-01
          0                 4           1             4    7     1      -0.1090761875E-04       4    7    1        -0.6244800925E-03      0.1294672600E-02

    ------------------------------------------------
       NWT REQUIRED            4 OUTER ITERATIONS 
       AND A TOTAL OF          7 INNER ITERATIONS.
    ------------------------------------------------

 NO OUTPUT CONTROL FOR STRESS PERIOD   12   TIME STEP   12
 
 SOLVING FOR HEAD 
                                                   Max.-Head-Change                         Max.-Flux-Residual
  Residual-Control   Outer-Iter.   Inner-Iter.     Column Row Layer    Maximum-Head-Change  Column Row Layer    Maximum-Flux-Residual          L2-NORM 
          0                 1           2             4    7     1       0.4079738888E-01       4    7    1         0.2150227684E+01      0.4464151493E+01
          0                 2           2             4    7     1      -0.3968508815E-02       4    7    1        -0.2150251720E+00      0.4463965665E+00
          0                 3           2             4    7     1       0.2702403924E-03       4    7    1         0.1505174581E-01      0.3124596219E-01
          0                 4           1             4    7     1      -0.1075311958E-04       4    7    1        -0.6156173645E-03      0.1277875124E-02

    ------------------------------------------------
       NWT REQUIRED            4 OUTER ITERATIONS 
       AND A TOTAL OF          7 INNER ITERATIONS.
    ------------------------------------------------

 NO OUTPUT CONTROL FOR STRESS PERIOD   12   TIME STEP   13
 
 SOLVING FOR HEAD 
                                                   Max.-Head-Change                         Max.-Flux-Residual
  Residual-Control   Outer-Iter.   Inner-Iter.     Column Row Layer    Maximum-Head-Change  Column Row Layer    Maximum-Flux-Residual          L2-NORM 
          0                 1           2             4    7     1       0.4022072913E-01       4    7    1         0.2119769884E+01      0.4406591496E+01
          0                 2           2             4    7     1      -0.3912414655E-02       4    7    1        -0.2119793312E+00      0.4406424488E+00
          0                 3           2             4    7     1       0.2664205969E-03       4    7    1         0.1483853743E-01      0.3084330225E-01
          0                 4           1             4    7     1      -0.1060112674E-04       4    7    1        -0.6068971402E-03      0.1261351980E-02

    ------------------------------------------------
       NWT REQUIRED            4 OUTER ITERATIONS 
       AND A TOTAL OF          7 INNER ITERATIONS.
    ------------------------------------------------

 NO OUTPUT CONTROL FOR STRESS PERIOD   12   TIME STEP   14
 
 SOLVING FOR HEAD 
                                                   Max.-Head-Change                         Max.-Flux-Residual
  Residual-Control   Outer-Iter.   Inner-Iter.     Column Row Layer    Maximum-Head-Change  Column Row Layer    Maximum-Flux-Residual          L2-NORM 
          0                 1           2             4    7     1       0.3965346750E-01       4    7    1         0.2089804952E+01      0.4350224387E+01
          0                 2           2             4    7     1      -0.3857234694E-02       4    7    1        -0.2089827785E+00      0.4350074314E+00
          0                 3           2             4    7     1       0.2626630547E-03       4    7    1         0.1462877922E-01      0.3044905230E-01
          0                 4           1             4    7     1      -0.1045161029E-04       4    7    1        -0.5983180051E-03      0.1245289049E-02

    ------------------------------------------------
       NWT REQUIRED            4 OUTER ITERATIONS 
       AND A TOTAL OF          7 INNER ITERATIONS.
    ------------------------------------------------

 NO OUTPUT CONTROL FOR STRESS PERIOD   12   TIME STEP   15
 
 SOLVING FOR HEAD 
                                                   Max.-Head-Change                         Max.-Flux-Residual
  Residual-Control   Outer-Iter.   Inner-Iter.     Column Row Layer    Maximum-Head-Change  Column Row Layer    Maximum-Flux-Residual          L2-NORM 
          0                 1           2             4    7     1       0.3909549530E-01       4    7    1         0.2060327288E+01      0.4295002530E+01
          0                 2           2             4    7     1      -0.3802958358E-02       4    7    1        -0.2060349538E+00      0.4294867880E+00
          0                 3           2             4    7     1       0.2589670455E-03       4    7    1         0.1442243194E-01      0.3006276596E-01
          0                 4           1             4    7     1      -0.1030454250E-04       4    7    1        -0.5898783818E-03      0.1229499477E-02

    ------------------------------------------------
       NWT REQUIRED            4 OUTER ITERATIONS 
       AND A TOTAL OF          7 INNER ITERATIONS.
    ------------------------------------------------

 NO OUTPUT CONTROL FOR STRESS PERIOD   12   TIME STEP   16
 
 SOLVING FOR HEAD 
                                                   Max.-Head-Change                         Max.-Flux-Residual
  Residual-Control   Outer-Iter.   Inner-Iter.     Column Row Layer    Maximum-Head-Change  Column Row Layer    Maximum-Flux-Residual          L2-NORM 
          0                 1           2             4    7     1       0.3854683590E-01       4    7    1         0.2031338588E+01      0.4240916555E+01
          0                 2           2             4    7     1      -0.3749587923E-02       4    7    1        -0.2031360267E+00      0.4240795258E+00
          0                 3           2             4    7     1       0.2553327249E-03       4    7    1         0.1421950750E-01      0.2968434938E-01
          0                 4           1             4    7     1      -0.1015992934E-04       4    7    1        -0.5815787624E-03      0.1213974683E-02

    ------------------------------------------------
       NWT REQUIRED            4 OUTER ITERATIONS 
       AND A TOTAL OF          7 INNER ITERATIONS.
    ------------------------------------------------

 NO OUTPUT CONTROL FOR STRESS PERIOD   12   TIME STEP   17
 
 SOLVING FOR HEAD 
                                                   Max.-Head-Change                         Max.-Flux-Residual
  Residual-Control   Outer-Iter.   Inner-Iter.     Column Row Layer    Maximum-Head-Change  Column Row Layer    Maximum-Flux-Residual          L2-NORM 
          0                 1           2             4    7     1       0.3800749466E-01       4    7    1         0.2002840065E+01      0.4187898265E+01
          0                 2           2             4    7     1      -0.3697123909E-02       4    7    1        -0.2002861187E+00      0.4187785537E+00
          0                 3           2             4    7     1       0.2517601280E-03       4    7    1         0.1402001438E-01      0.2931339480E-01
          0                 4           1             4    7     1      -0.1001777265E-04       4    7    1        -0.5734194776E-03      0.1198817611E-02

    ------------------------------------------------
       NWT REQUIRED            4 OUTER ITERATIONS 
       AND A TOTAL OF          7 INNER ITERATIONS.
    ------------------------------------------------

 NO OUTPUT CONTROL FOR STRESS PERIOD   12   TIME STEP   18
 
 SOLVING FOR HEAD 
                                                   Max.-Head-Change                         Max.-Flux-Residual
  Residual-Control   Outer-Iter.   Inner-Iter.     Column Row Layer    Maximum-Head-Change  Column Row Layer    Maximum-Flux-Residual          L2-NORM 
          0                 1           2             4    7     1       0.3747707076E-01       4    7    1         0.1974810004E+01      0.4135943990E+01
          0                 2           2             4    7     1      -0.3645527328E-02       4    7    1        -0.1974830582E+00      0.4135844203E+00
          0                 3           2             4    7     1       0.2482466000E-03       4    7    1         0.1382380056E-01      0.2894989497E-01
          0                 4           1             4    7     1      -0.9877966071E-05       4    7    1        -0.5653943331E-03      0.1183990161E-02

    ------------------------------------------------
       NWT REQUIRED            4 OUTER ITERATIONS 
       AND A TOTAL OF          7 INNER ITERATIONS.
    ------------------------------------------------

 NO OUTPUT CONTROL FOR STRESS PERIOD   12   TIME STEP   19
 
 SOLVING FOR HEAD 
                                                   Max.-Head-Change                         Max.-Flux-Residual
  Residual-Control   Outer-Iter.   Inner-Iter.     Column Row Layer    Maximum-Head-Change  Column Row Layer    Maximum-Flux-Residual          L2-NORM 
          0                 1           2             4    7     1       0.3695557618E-01       4    7    1         0.1947249617E+01      0.4085001725E+01
          0                 2           2             4    7     1      -0.3594799345E-02       4    7    1        -0.1947269662E+00      0.4084910873E+00
          0                 3           2             4    7     1       0.2447922202E-03       4    7    1         0.1363087456E-01      0.2859345013E-01
          0                 4           1             4    7     1      -0.9740513042E-05       4    7    1        -0.5575036366E-03      0.1169419208E-02

    ------------------------------------------------
       NWT REQUIRED            4 OUTER ITERATIONS 
       AND A TOTAL OF          7 INNER ITERATIONS.
    ------------------------------------------------

 NO OUTPUT CONTROL FOR STRESS PERIOD   12   TIME STEP   20
 
 SOLVING FOR HEAD 
                                                   Max.-Head-Change                         Max.-Flux-Residual
  Residual-Control   Outer-Iter.   Inner-Iter.     Column Row Layer    Maximum-Head-Change  Column Row Layer    Maximum-Flux-Residual          L2-NORM 
          0                 1           2             4    7     1       0.3644287485E-01       4    7    1         0.1920152194E+01      0.4035045107E+01
          0                 2           2             4    7     1      -0.3544923208E-02       4    7    1        -0.1920171719E+00      0.4033854214E+00
          0                 3           2             4    7     1       0.2413958471E-03       4    7    1         0.1344118935E-01      0.2823610736E-01
          0                 4           1             4    7     1      -0.9605367745E-05       4    7    1        -0.5497454847E-03      0.1154789102E-02

    ------------------------------------------------
       NWT REQUIRED            4 OUTER ITERATIONS 
       AND A TOTAL OF          7 INNER ITERATIONS.
    ------------------------------------------------

 NO OUTPUT CONTROL FOR STRESS PERIOD   12   TIME STEP   21
 
 SOLVING FOR HEAD 
                                                   Max.-Head-Change                         Max.-Flux-Residual
  Residual-Control   Outer-Iter.   Inner-Iter.     Column Row Layer    Maximum-Head-Change  Column Row Layer    Maximum-Flux-Residual          L2-NORM 
          0                 1           2             4    7     1       0.3593898932E-01       4    7    1         0.1893518201E+01      0.3986151258E+01
          0                 2           2             4    7     1      -0.3495911660E-02       4    7    1        -0.1893537218E+00      0.3986076852E+00
          0                 3           2             4    7     1       0.2380583503E-03       4    7    1         0.1325474827E-01      0.2790212418E-01
          0                 4           1             4    7     1      -0.9472565986E-05       4    7    1        -0.5421200538E-03      0.1142110571E-02

    ------------------------------------------------
       NWT REQUIRED            4 OUTER ITERATIONS 
       AND A TOTAL OF          7 INNER ITERATIONS.
    ------------------------------------------------

 NO OUTPUT CONTROL FOR STRESS PERIOD   12   TIME STEP   22
 
 SOLVING FOR HEAD 
                                                   Max.-Head-Change                         Max.-Flux-Residual
  Residual-Control   Outer-Iter.   Inner-Iter.     Column Row Layer    Maximum-Head-Change  Column Row Layer    Maximum-Flux-Residual          L2-NORM 
          0                 1           2             4    7     1       0.3544363541E-01       4    7    1         0.1867333578E+01      0.3938269221E+01
          0                 2           2             4    7     1      -0.3447726505E-02       4    7    1        -0.1867352101E+00      0.3938201172E+00
          0                 3           2             4    7     1       0.2347771271E-03       4    7    1         0.1307145284E-01      0.2756661019E-01
          0                 4           1             4    7     1      -0.9342002768E-05       4    7    1        -0.5346232592E-03      0.1127377558E-02

    ------------------------------------------------
       NWT REQUIRED            4 OUTER ITERATIONS 
       AND A TOTAL OF          7 INNER ITERATIONS.
    ------------------------------------------------

 NO OUTPUT CONTROL FOR STRESS PERIOD   12   TIME STEP   23
 
 SOLVING FOR HEAD 
                                                   Max.-Head-Change                         Max.-Flux-Residual
  Residual-Control   Outer-Iter.   Inner-Iter.     Column Row Layer    Maximum-Head-Change  Column Row Layer    Maximum-Flux-Residual          L2-NORM 
          0                 1           2             4    7     1       0.3495682145E-01       4    7    1         0.1841598823E+01      0.3891291212E+01
          0                 2           2             4    7     1      -0.3400372072E-02       4    7    1        -0.1841616862E+00      0.3891228916E+00
          0                 3           2             4    7     1       0.2315524723E-03       4    7    1         0.1289130653E-01      0.2723795012E-01
          0                 4           1             4    7     1      -0.9213690985E-05       4    7    1        -0.5272552532E-03      0.1113974115E-02

    ------------------------------------------------
       NWT REQUIRED            4 OUTER ITERATIONS 
       AND A TOTAL OF          7 INNER ITERATIONS.
    ------------------------------------------------

 NO OUTPUT CONTROL FOR STRESS PERIOD   12   TIME STEP   24
 
 SOLVING FOR HEAD 
                                                   Max.-Head-Change                         Max.-Flux-Residual
  Residual-Control   Outer-Iter.   Inner-Iter.     Column Row Layer    Maximum-Head-Change  Column Row Layer    Maximum-Flux-Residual          L2-NORM 
          0                 1           2             4    7     1       0.3447840534E-01       4    7    1         0.1816306844E+01      0.3845186342E+01
          0                 2           2             4    7     1      -0.3353834538E-02       4    7    1        -0.1816324412E+00      0.3845128923E+00
          0                 3           2             4    7     1       0.2283834456E-03       4    7    1         0.1271425976E-01      0.2691528111E-01
          0                 4           1             4    7     1      -0.9087592069E-05       4    7    1        -0.5200140213E-03      0.1100792917E-02

    ------------------------------------------------
       NWT REQUIRED            4 OUTER ITERATIONS 
       AND A TOTAL OF          7 INNER ITERATIONS.
    ------------------------------------------------

 NO OUTPUT CONTROL FOR STRESS PERIOD   12   TIME STEP   25
 
 SOLVING FOR HEAD 
                                                   Max.-Head-Change                         Max.-Flux-Residual
  Residual-Control   Outer-Iter.   Inner-Iter.     Column Row Layer    Maximum-Head-Change  Column Row Layer    Maximum-Flux-Residual          L2-NORM 
          0                 1           2             4    7     1       0.3400824703E-01       4    7    1         0.1791450276E+01      0.3799939812E+01
          0                 2           2             4    7     1      -0.3308100280E-02       4    7    1        -0.1791467385E+00      0.3799886700E+00
          0                 3           2             4    7     1       0.2252691189E-03       4    7    1         0.1254026093E-01      0.2659863004E-01
          0                 4           1             4    7     1      -0.8963670217E-05       4    7    1        -0.5128974633E-03      0.1087867834E-02

    ------------------------------------------------
       NWT REQUIRED            4 OUTER ITERATIONS 
       AND A TOTAL OF          7 INNER ITERATIONS.
    ------------------------------------------------

 NO OUTPUT CONTROL FOR STRESS PERIOD   12   TIME STEP   26
 
 SOLVING FOR HEAD 
                                                   Max.-Head-Change                         Max.-Flux-Residual
  Residual-Control   Outer-Iter.   Inner-Iter.     Column Row Layer    Maximum-Head-Change  Column Row Layer    Maximum-Flux-Residual          L2-NORM 
          0                 1           2             4    7     1       0.3354606952E-01       4    7    1         0.1767014520E+01      0.3755518077E+01
          0                 2           2             4    7     1      -0.3263142354E-02       4    7    1        -0.1767031182E+00      0.3755468839E+00
          0                 3           2             4    7     1       0.2222076573E-03       4    7    1         0.1236920785E-01      0.2628773493E-01
          0                 4           1             4    7     1      -0.8841851861E-05       4    7    1        -0.5059013899E-03      0.1075134278E-02

    ------------------------------------------------
       NWT REQUIRED            4 OUTER ITERATIONS 
       AND A TOTAL OF          7 INNER ITERATIONS.
    ------------------------------------------------

 NO OUTPUT CONTROL FOR STRESS PERIOD   12   TIME STEP   27
 
 SOLVING FOR HEAD 
                                                   Max.-Head-Change                         Max.-Flux-Residual
  Residual-Control   Outer-Iter.   Inner-Iter.     Column Row Layer    Maximum-Head-Change  Column Row Layer    Maximum-Flux-Residual          L2-NORM 
          0                 1           2             4    7     1       0.3309200821E-01       4    7    1         0.1743007223E+01      0.3711907252E+01
          0                 2           2             4    7     1      -0.3218973975E-02       4    7    1        -0.1743023449E+00      0.3711862680E+00
          0                 3           2             4    7     1       0.2191999592E-03       4    7    1         0.1220115407E-01      0.2598254631E-01
          0                 4           1             4    7     1      -0.8722172461E-05       4    7    1        -0.4990279704E-03      0.1062659340E-02

    ------------------------------------------------
       NWT REQUIRED            4 OUTER ITERATIONS 
       AND A TOTAL OF          7 INNER ITERATIONS.
    ------------------------------------------------

 NO OUTPUT CONTROL FOR STRESS PERIOD   12   TIME STEP   28
 
 SOLVING FOR HEAD 
                                                   Max.-Head-Change                         Max.-Flux-Residual
  Residual-Control   Outer-Iter.   Inner-Iter.     Column Row Layer    Maximum-Head-Change  Column Row Layer    Maximum-Flux-Residual          L2-NORM 
          0                 1           2             4    7     1       0.3264577775E-01       4    7    1         0.1719413396E+01      0.3669083811E+01
          0                 2           2             4    7     1      -0.3175567385E-02       4    7    1        -0.1719429197E+00      0.3669042839E+00
          0                 3           2             4    7     1       0.2162441373E-03       4    7    1         0.1203599462E-01      0.2568278934E-01
          0                 4           1             4    7     1      -0.8604557528E-05       4    7    1        -0.4922729343E-03      0.1050417567E-02

    ------------------------------------------------
       NWT REQUIRED            4 OUTER ITERATIONS 
       AND A TOTAL OF          7 INNER ITERATIONS.
    ------------------------------------------------

 NO OUTPUT CONTROL FOR STRESS PERIOD   12   TIME STEP   29
 
 SOLVING FOR HEAD 
                                                   Max.-Head-Change                         Max.-Flux-Residual
  Residual-Control   Outer-Iter.   Inner-Iter.     Column Row Layer    Maximum-Head-Change  Column Row Layer    Maximum-Flux-Residual          L2-NORM 
          0                 1           2             4    7     1       0.3220723244E-01       4    7    1         0.1696225578E+01      0.3628081919E+01
          0                 2           2             4    7     1      -0.3132908273E-02       4    7    1        -0.1696240966E+00      0.3628015627E+00
          0                 3           2             4    7     1       0.2133392159E-03       4    7    1         0.1187367733E-01      0.2539540705E-01
          0                 4           1             4    7     1      -0.8488967806E-05       4    7    1        -0.4856341393E-03      0.1038629899E-02

    ------------------------------------------------
       NWT REQUIRED            4 OUTER ITERATIONS 
       AND A TOTAL OF          7 INNER ITERATIONS.
    ------------------------------------------------

 NO OUTPUT CONTROL FOR STRESS PERIOD   12   TIME STEP   30



 STREAM LISTING     PERIOD     12   STEP       30

 LAYER ROW COL. STREAM  RCH.  FLOW INTO     FLOW TO   FLOW OUT OF   OVRLND.     DIRECT     STREAM       STREAM     STREAM     STREAM   STREAMBED  STREAMBED
                SEG.NO.  NO.  STRM. RCH.    AQUIFER    STRM. RCH.    RUNOFF     PRECIP       ET          HEAD       DEPTH      WIDTH   CONDCTNC.   GRADIENT

   1    1    1     1     1    2.5441E+01  2.4717E-01   2.5194E+01  0.000E+00  0.000E+00  0.000E+00  1.09423E+03  1.185E+00  1.313E+01  5.906E-02  1.395E+00
   1    2    2     1     2    2.5194E+01  3.8224E-01   2.4811E+01  0.000E+00  0.000E+00  0.000E+00  1.08924E+03  1.180E+00  1.306E+01  9.144E-02  1.393E+00
   1    3    3     1     3    2.4811E+01  3.2545E-01   2.4486E+01  0.000E+00  0.000E+00  0.000E+00  1.08359E+03  1.175E+00  1.299E+01  7.795E-02  1.392E+00
   1    3    4     1     4    2.4486E+01  2.9925E-01   2.4187E+01  0.000E+00  0.000E+00  0.000E+00  1.07858E+03  1.170E+00  1.293E+01  7.176E-02  1.390E+00
   1    4    5     2     1    2.2187E+01  3.2130E-01   2.1865E+01  0.000E+00  0.000E+00  0.000E+00  1.07305E+03  1.119E+00  1.200E+01  7.800E-02  1.373E+00
   1    5    6     2     2    2.1865E+01  2.4663E-01   2.1619E+01  0.000E+00  0.000E+00  0.000E+00  1.06762E+03  1.111E+00  1.200E+01  6.000E-02  1.370E+00
   1    6    6     2     3    2.1619E+01  2.4618E-01   2.1373E+01  0.000E+00  0.000E+00  0.000E+00  1.06290E+03  1.103E+00  1.200E+01  6.000E-02  1.368E+00
   1    7    6     2     4    2.1373E+01  2.4572E-01   2.1127E+01  0.000E+00  0.000E+00  0.000E+00  1.05817E+03  1.095E+00  1.200E+01  6.000E-02  1.365E+00
   1    8    6     2     5    2.1127E+01  2.4527E-01   2.0882E+01  0.000E+00  0.000E+00  0.000E+00  1.05345E+03  1.088E+00  1.200E+01  6.000E-02  1.363E+00
   1    3    5     3     1    2.0000E+00  2.8252E-01   1.7175E+00  0.000E+00  0.000E+00  0.000E+00  1.07555E+03  1.909E+00  9.636E+00  7.227E-02  1.955E+00
   1    3    6     3     2    1.7175E+00  2.4905E-01   1.4684E+00  0.000E+00  0.000E+00  0.000E+00  1.07264E+03  1.727E+00  8.909E+00  6.682E-02  1.864E+00
   1    3    7     3     3    1.4684E+00  1.9718E-01   1.2712E+00  0.000E+00  0.000E+00  0.000E+00  1.06987E+03  1.555E+00  8.218E+00  5.547E-02  1.777E+00
   1    4    8     3     4    1.2712E+00  2.2567E-01   1.0456E+00  0.000E+00  0.000E+00  0.000E+00  1.06682E+03  1.364E+00  7.455E+00  6.709E-02  1.682E+00
   1    5    8     3     5    1.0456E+00  1.5790E-01   8.8768E-01  0.000E+00  0.000E+00  0.000E+00  1.06362E+03  1.164E+00  6.655E+00  4.991E-02  1.582E+00
   1    6    8     3     6    8.8768E-01  5.5980E-02   8.3170E-01  0.000E+00  0.000E+00  0.000E+00  1.06158E+03  1.036E+00  6.145E+00  1.844E-02  1.518E+00
   1    5   10     4     1    1.0000E+01  9.0919E-02   9.9091E+00  0.000E+00  0.000E+00  0.000E+00  1.07836E+03  6.368E-01  1.000E+01  2.500E-02  1.212E+00
   1    5    9     4     2    9.9091E+00  1.8158E-01   9.7275E+00  0.000E+00  0.000E+00  0.000E+00  1.07154E+03  6.315E-01  1.000E+01  5.000E-02  1.211E+00
   1    6    8     4     3    9.7275E+00  1.2689E-01   9.6006E+00  0.000E+00  0.000E+00  0.000E+00  1.06381E+03  6.256E-01  1.000E+01  3.500E-02  1.209E+00
   1    6    8     5     1    1.0432E+01  2.2686E-01   1.0205E+01  0.000E+00  0.000E+00  0.000E+00  1.05868E+03  6.790E-01  1.542E+01  6.166E-02  1.226E+00
   1    7    7     5     2    1.0205E+01  2.7894E-01   9.9265E+00  0.000E+00  0.000E+00  0.000E+00  1.05417E+03  6.732E-01  1.519E+01  7.594E-02  1.224E+00
   1    8    7     5     3    9.9265E+00  1.9221E-01   9.7343E+00  0.000E+00  0.000E+00  0.000E+00  1.04992E+03  6.676E-01  1.497E+01  5.241E-02  1.223E+00
   1    8    6     5     4    9.7343E+00  1.3577E-01   9.5985E+00  0.000E+00  0.000E+00  0.000E+00  1.04691E+03  6.637E-01  1.482E+01  3.706E-02  1.221E+00
   1    9    6     6     1    3.0480E+01  2.6230E-01   3.0218E+01  0.000E+00  0.000E+00  0.000E+00  1.04410E+03  1.372E+00  1.200E+01  6.000E-02  1.457E+00
   1   10    7     6     2    3.0218E+01  2.6187E-01   2.9956E+01  0.000E+00  0.000E+00  0.000E+00  1.03955E+03  1.365E+00  1.200E+01  6.000E-02  1.455E+00
   1   11    7     6     3    2.9956E+01  2.6145E-01   2.9695E+01  0.000E+00  0.000E+00  0.000E+00  1.03499E+03  1.357E+00  1.200E+01  6.000E-02  1.452E+00
   1   12    7     6     4    2.9695E+01  2.6102E-01   2.9434E+01  0.000E+00  0.000E+00  0.000E+00  1.03044E+03  1.350E+00  1.200E+01  6.000E-02  1.450E+00
   1   13    7     6     5    2.9434E+01  1.2918E-03   2.9432E+01  0.000E+00  0.000E+00  0.000E+00  1.02726E+03  1.347E+00  1.200E+01  2.400E-02  1.794E-02
   1   14    9     7     1    1.5000E+02  1.3299E+00   1.4867E+02  0.000E+00  0.000E+00  0.000E+00  1.03987E+03  2.288E+00  5.529E+01  5.593E-01  7.926E-01
   1   13    8     7     2    1.4867E+02  1.7965E+00   1.4687E+02  0.000E+00  0.000E+00  0.000E+00  1.03478E+03  2.279E+00  5.526E+01  6.148E-01  9.740E-01
   1   13    7     7     3    1.4687E+02  1.3897E+00   1.4548E+02  0.000E+00  0.000E+00  0.000E+00  1.02969E+03  2.271E+00  5.522E+01  5.585E-01  8.294E-01
   1   13    6     8     1    1.7492E+02  8.6350E-01   1.7405E+02  0.000E+00  0.000E+00  0.000E+00  1.02486E+03  2.981E+00  4.323E+01  4.405E-01  6.534E-01
   1   13    5     8     2    1.7405E+02  1.2099E-01   1.7393E+02  0.000E+00  0.000E+00  0.000E+00  1.01860E+03  2.978E+00  4.318E+01  4.400E-01  9.165E-02
   1   13    4     8     3    1.7393E+02 -2.6195E+00   1.7655E+02  0.000E+00  0.000E+00  0.000E+00  1.01236E+03  2.986E+00  4.330E+01  4.412E+00 -1.979E-01
   1   13    3     8     4    1.7655E+02 -3.7635E+00   1.8031E+02  0.000E+00  0.000E+00  0.000E+00  1.00613E+03  3.006E+00  4.359E+01  4.442E+00 -2.824E-01
   1   13    2     8     5    1.8031E+02 -2.6298E+00   1.8294E+02  0.000E+00  0.000E+00  0.000E+00  9.99901E+02  3.026E+00  4.388E+01  4.472E+00 -1.960E-01
   1   13    1     8     6    1.8294E+02 -2.0230E+00   1.8497E+02  0.000E+00  0.000E+00  0.000E+00  9.94916E+02  3.041E+00  4.409E+01  2.696E+00 -2.501E-01





UNSATURATED ZONE PACKAGE VOLUMETRIC BUDGET FOR  TIME STEP    30 STRESS PERIOD   12
  ------------------------------------------------------------------------------



     CUMULATIVE VOLUMES      L**3       RATES FOR THIS TIME STEP      L**3/T
     ------------------                 ------------------------

           IN:                                      IN:
           ---                                      ---
        INFILTRATION =   428493542.0870          INFILTRATION =           0.8475

          OUT:                                     OUT:
          ----                                     ----
              UZF ET =   428067054.8033                UZF ET =           0.7500
        UZF RECHARGE =       73224.0000          UZF RECHARGE =       0.0000E+00

            IN - OUT =      353263.2837              IN - OUT =       9.7500E-02

          STORAGE:                                 STORAGE:
          --------                                 --------
      STORAGE CHANGE =      353261.5699        STORAGE CHANGE =       9.7500E-02

 PERCENT DISCREPANCY IS DIFFERENCE BETWEEN IN-OUT MINUS CHANGE IN STORAGE
 DIVIDED BY THE AVERAGE OF IN AND OUT TIMES 100

 PERCENT DISCREPANCY =           0.00     PERCENT DISCREPANCY =           0.00






1
  VOLUMETRIC BUDGET FOR AGRICULTURAL FIELDS AT  END OF TIME STEP   30, STRESS PERIOD  12
  ------------------------------------------------------------------------------

     CUMULATIVE VOLUMES      L**3       RATES FOR THIS TIME STEP      L**3/T
     ------------------                 ------------------------

           IN:                                      IN:
           ---                                      ---
               AG WELLS  =   403901728.0000                 AG WELLS  =           0.0000
      DIVERSION SEGMENTS =           0.0000        DIVERSION SEGMENTS =           0.0000
       IRRIGATION PONDS  =           0.0000         IRRIGATION PONDS  =           0.0000
           GW IRRIGATION =           0.0000             GW IRRIGATION =           0.0000
           SW IRRIGATION =           0.0000             SW IRRIGATION =           0.0000
        SYSTEM LOSSES GW =           0.0000          SYSTEM LOSSES GW =           0.0000
        SYSTEM LOSSES SW =           0.0000          SYSTEM LOSSES SW =           0.0000

                TOTAL IN =   403901728.0000                  TOTAL IN =           0.0000

          OUT:                                     OUT:
          ----                                     ----
               AG WELLS  =           0.0000                 AG WELLS  =           0.0000
      DIVERSION SEGMENTS =           0.0000        DIVERSION SEGMENTS =           0.0000
       IRRIGATION PONDS  =           0.0000         IRRIGATION PONDS  =           0.0000
           GW IRRIGATION =   403901728.0000             GW IRRIGATION =           0.0000
           SW IRRIGATION =           0.0000             SW IRRIGATION =           0.0000
        SYSTEM LOSSES GW =           0.0000          SYSTEM LOSSES GW =           0.0000
        SYSTEM LOSSES SW =           0.0000          SYSTEM LOSSES SW =           0.0000

               TOTAL OUT =   403901728.0000                 TOTAL OUT =           0.0000

                IN - OUT =           0.0000                  IN - OUT =           0.0000

     PERCENT DISCREPANCY =           0.00         PERCENT DISCREPANCY =           0.00



1
  VOLUMETRIC BUDGET FOR ENTIRE MODEL AT END OF TIME STEP   30, STRESS PERIOD  12
  ------------------------------------------------------------------------------

     CUMULATIVE VOLUMES      L**3       RATES FOR THIS TIME STEP      L**3/T
     ------------------                 ------------------------

           IN:                                      IN:
           ---                                      ---
             STORAGE     =   510115936.0000               STORAGE     =           9.9651
       CONSTANT HEAD     =           0.0000         CONSTANT HEAD     =           0.0000
     HEAD DEP BOUNDS     =     8282452.5000       HEAD DEP BOUNDS     =           0.2854
      STREAM LEAKAGE     =   364404224.0000        STREAM LEAKAGE     =          11.5091
        UZF RECHARGE     =       73223.9531          UZF RECHARGE     =           0.0000
               GW ET     =           0.0000                 GW ET     =           0.0000
     SURFACE LEAKAGE     =           0.0000       SURFACE LEAKAGE     =           0.0000
           AG WELLS      =           0.0000             AG WELLS      =           0.0000

                TOTAL IN =   882875840.0000                  TOTAL IN =          21.7596

          OUT:                                     OUT:
          ----                                     ----
             STORAGE     =   156915584.0000               STORAGE     =          10.4325
       CONSTANT HEAD     =           0.0000         CONSTANT HEAD     =           0.0000
     HEAD DEP BOUNDS     =     8560195.0000       HEAD DEP BOUNDS     =           0.2913
      STREAM LEAKAGE     =   299737600.0000        STREAM LEAKAGE     =          11.0357
        UZF RECHARGE     =           0.0000          UZF RECHARGE     =           0.0000
               GW ET     =    13763951.0000                 GW ET     =           0.0000
     SURFACE LEAKAGE     =           0.0000       SURFACE LEAKAGE     =           0.0000
           AG WELLS      =   403901728.0000             AG WELLS      =           0.0000

               TOTAL OUT =   882879040.0000                 TOTAL OUT =          21.7596

                IN - OUT =       -3200.0000                  IN - OUT =       3.8147E-06

     PERCENT DISCREPANCY =          -0.00         PERCENT DISCREPANCY =           0.00






         TIME SUMMARY AT END OF TIME STEP   30 IN STRESS PERIOD   12
                    SECONDS     MINUTES      HOURS       DAYS        YEARS
                    -----------------------------------------------------------
   TIME STEP LENGTH  87667.      1461.1      24.352      1.0147     2.77799E-03
 STRESS PERIOD TIME 2.63000E+06  43833.      730.56      30.440     8.33397E-02
         TOTAL TIME 2.90163E+07 4.83606E+05  8060.1      335.84     0.91947    
1
1
                            STRESS PERIOD NO.   13, LENGTH =   2630000.    
                            -----------------------------------------------

                              NUMBER OF TIME STEPS =    30

                               MULTIPLIER FOR DELT =     1.000

                            INITIAL TIME STEP SIZE =   87666.66    

 REUSING NON-PARAMETER GHB CELLS FROM LAST STRESS PERIOD

      2 GHB CELLS

 REUSING STREAM SEGMENT DATA FROM LAST STRESS PERIOD



            AREAL INFILTRATION RATE
 READING ON UNIT   19 WITH FORMAT: (FREE)              

            1           2           3           4           5           6           7           8           9          10
 ........................................................................................................................
   1   1.0000E-10  2.0000E-10   0.000       0.000       0.000       0.000       0.000       0.000       0.000       0.000    
   2   2.0000E-10  1.0000E-10  2.0000E-10   0.000       0.000      8.0000E-10  8.0000E-10  5.0000E-10   0.000       0.000    
   3    0.000      5.0000E-10  1.0000E-10  1.0000E-10  8.0000E-10  8.0000E-10  5.0000E-10  5.0000E-10   0.000       0.000    
   4   8.0000E-10  5.0000E-10  1.0000E-10  1.0000E-10  1.0000E-10  1.0000E-10  1.0000E-10  1.0000E-10  2.0000E-10   0.000    
   5   8.0000E-10  5.0000E-10  1.0000E-10  1.0000E-10  1.0000E-10  1.0000E-10  1.0000E-10  1.0000E-10  1.0000E-10  1.0000E-10
   6   8.0000E-10  5.0000E-10  5.0000E-10  2.0000E-10  2.0000E-10  1.0000E-10  1.0000E-10  1.0000E-10  1.0000E-10  5.0000E-10
   7   8.0000E-10  5.0000E-10  5.0000E-10  2.0000E-10  2.0000E-10  1.0000E-10  1.0000E-10  2.0000E-10  2.0000E-10   0.000    
   8    0.000      5.0000E-10  5.0000E-10  2.0000E-10  2.0000E-10  1.0000E-10  1.0000E-10  2.0000E-10  5.0000E-10   0.000    
   9    0.000      5.0000E-10  5.0000E-10  2.0000E-10  2.0000E-10  1.0000E-10  1.0000E-10  2.0000E-10  5.0000E-10   0.000    
  10    0.000      5.0000E-10  5.0000E-10  2.0000E-10  2.0000E-10  1.0000E-10  1.0000E-10  2.0000E-10  5.0000E-10  8.0000E-10
  11    0.000      1.0000E-10  1.0000E-10  1.0000E-10  1.0000E-10  1.0000E-10  1.0000E-10  2.0000E-10  5.0000E-10   0.000    
  12   1.0000E-10  1.0000E-10  1.0000E-10  1.0000E-10  1.0000E-10  1.0000E-10  1.0000E-10  1.0000E-10  2.0000E-10   0.000    
  13   1.0000E-10  1.0000E-10  2.0000E-10  2.0000E-10  2.0000E-10  2.0000E-10  2.0000E-10  1.0000E-10  1.0000E-10   0.000    
  14    0.000      2.0000E-10  5.0000E-10  5.0000E-10  5.0000E-10  5.0000E-10  5.0000E-10  2.0000E-10  1.0000E-10   0.000    
  15    0.000       0.000      8.0000E-10  8.0000E-10  8.0000E-10  8.0000E-10   0.000       0.000       0.000       0.000    

                  ET RATE =  5.000000E-10

 USING ET EXTINCTION DEPTH FROM PREVIOUS STRESS PERIOD. CURRENT PERIOD IS:      13

 USING EXTINCTION WATER CONTENT FROM PREVIOUS STRESS PERIOD. CURRENT PERIOD IS:      13

 USING AIR ENTRY PRESSURE FROM PREVIOUS STRESS PERIOD. CURRENT PERIOD IS:      13

 USING ROOT PRESSURE HEAD FROM PREVIOUS STRESS PERIOD. CURRENT PERIOD IS:      13

 USING ROOT ACTIVITY FROM PREVIOUS STRESS PERIOD. CURRENT PERIOD IS:      13

 PROCESSING AG STRESS PERIOD DATA

 READING AG STRESS PERIOD DATA

 READING IRRIGATION WELL

 NO IRRPOND OR REUSING IRRPOND DATA FROM LAST STRESS PERIOD

 END PROCESSING AG STRESS PERIOD DATA OPTIONS
 
 SOLVING FOR HEAD 
                                                   Max.-Head-Change                         Max.-Flux-Residual
  Residual-Control   Outer-Iter.   Inner-Iter.     Column Row Layer    Maximum-Head-Change  Column Row Layer    Maximum-Flux-Residual          L2-NORM 
          0                 1           2             4    7     1       0.3177634826E-01       4    7    1         0.1673443562E+01      0.3592862888E+01
          0                 2           2             4    7     1      -0.3090994396E-02       4    7    1        -0.1673458548E+00      0.3592400335E+00
          0                 3           2             4    7     1       0.2104850425E-03       4    7    1         0.1171420074E-01      0.2514436527E-01
          0                 4           1             4    7     1      -0.8375397882E-05       4    7    1        -0.4791115439E-03      0.1028239937E-02

    ------------------------------------------------
       NWT REQUIRED            4 OUTER ITERATIONS 
       AND A TOTAL OF          7 INNER ITERATIONS.
    ------------------------------------------------

 NO OUTPUT CONTROL FOR STRESS PERIOD   13   TIME STEP    1
 
 SOLVING FOR HEAD 
                                                   Max.-Head-Change                         Max.-Flux-Residual
  Residual-Control   Outer-Iter.   Inner-Iter.     Column Row Layer    Maximum-Head-Change  Column Row Layer    Maximum-Flux-Residual          L2-NORM 
          0                 1           2             4    7     1       0.3135284346E-01       4    7    1         0.1651051421E+01      0.3551884133E+01
          0                 2           2             4    7     1      -0.3049798348E-02       4    7    1        -0.1651066016E+00      0.3551655831E+00
          0                 3           2             4    7     1       0.2076797494E-03       4    7    1         0.1155745328E-01      0.2485944429E-01
          0                 4           1             4    7     1      -0.8263772348E-05       4    7    1        -0.4727005489E-03      0.1016605335E-02

    ------------------------------------------------
       NWT REQUIRED            4 OUTER ITERATIONS 
       AND A TOTAL OF          7 INNER ITERATIONS.
    ------------------------------------------------

 NO OUTPUT CONTROL FOR STRESS PERIOD   13   TIME STEP    2
 
 SOLVING FOR HEAD 
                                                   Max.-Head-Change                         Max.-Flux-Residual
  Residual-Control   Outer-Iter.   Inner-Iter.     Column Row Layer    Maximum-Head-Change  Column Row Layer    Maximum-Flux-Residual          L2-NORM 
          0                 1           2             4    7     1       0.3093671882E-01       4    7    1         0.1629049224E+01      0.3511638954E+01
          0                 2           2             4    7     1      -0.3009320204E-02       4    7    1        -0.1629063438E+00      0.3511433766E+00
          0                 3           2             4    7     1       0.2049233436E-03       4    7    1         0.1140343554E-01      0.2457805752E-01
          0                 4           1             4    7     1      -0.8154092356E-05       4    7    1        -0.4664012258E-03      0.1005108831E-02

    ------------------------------------------------
       NWT REQUIRED            4 OUTER ITERATIONS 
       AND A TOTAL OF          7 INNER ITERATIONS.
    ------------------------------------------------

 NO OUTPUT CONTROL FOR STRESS PERIOD   13   TIME STEP    3
 
 SOLVING FOR HEAD 
                                                   Max.-Head-Change                         Max.-Flux-Residual
  Residual-Control   Outer-Iter.   Inner-Iter.     Column Row Layer    Maximum-Head-Change  Column Row Layer    Maximum-Flux-Residual          L2-NORM 
          0                 1           2             4    7     1       0.3052782878E-01       4    7    1         0.1607429674E+01      0.3472127518E+01
          0                 2           2             4    7     1      -0.2969545804E-02       4    7    1        -0.1607443516E+00      0.3471942329E+00
          0                 3           2             4    7     1       0.2022148597E-03       4    7    1         0.1125209637E-01      0.2430181391E-01
          0                 4           1             4    7     1      -0.8046319452E-05       4    7    1        -0.4602114450E-03      0.9938460844E-03

    ------------------------------------------------
       NWT REQUIRED            4 OUTER ITERATIONS 
       AND A TOTAL OF          7 INNER ITERATIONS.
    ------------------------------------------------

 NO OUTPUT CONTROL FOR STRESS PERIOD   13   TIME STEP    4
 
 SOLVING FOR HEAD 
                                                   Max.-Head-Change                         Max.-Flux-Residual
  Residual-Control   Outer-Iter.   Inner-Iter.     Column Row Layer    Maximum-Head-Change  Column Row Layer    Maximum-Flux-Residual          L2-NORM 
          0                 1           2             4    7     1       0.3012590107E-01       4    7    1         0.1586177882E+01      0.3433335590E+01
          0                 2           2             4    7     1      -0.2930448664E-02       4    7    1        -0.1586191364E+00      0.3433168206E+00
          0                 3           2             4    7     1       0.1995524950E-03       4    7    1         0.1110333159E-01      0.2403056479E-01
          0                 4           1             4    7     1      -0.7940381567E-05       4    7    1        -0.4541269695E-03      0.9827565321E-03

    ------------------------------------------------
       NWT REQUIRED            4 OUTER ITERATIONS 
       AND A TOTAL OF          7 INNER ITERATIONS.
    ------------------------------------------------

 NO OUTPUT CONTROL FOR STRESS PERIOD   13   TIME STEP    5
 
 SOLVING FOR HEAD 
                                                   Max.-Head-Change                         Max.-Flux-Residual
  Residual-Control   Outer-Iter.   Inner-Iter.     Column Row Layer    Maximum-Head-Change  Column Row Layer    Maximum-Flux-Residual          L2-NORM 
          0                 1           2             4    7     1       0.2973107096E-01       4    7    1         0.1565301753E+01      0.3395237896E+01
          0                 2           2             4    7     1      -0.2892041941E-02       4    7    1        -0.1565314884E+00      0.3395087034E+00
          0                 3           2             4    7     1       0.1969371444E-03       4    7    1         0.1095719650E-01      0.2376414914E-01
          0                 4           1             4    7     1      -0.7836314045E-05       4    7    1        -0.4481500139E-03      0.9718707359E-03

    ------------------------------------------------
       NWT REQUIRED            4 OUTER ITERATIONS 
       AND A TOTAL OF          7 INNER ITERATIONS.
    ------------------------------------------------

 NO OUTPUT CONTROL FOR STRESS PERIOD   13   TIME STEP    6
 
 SOLVING FOR HEAD 
                                                   Max.-Head-Change                         Max.-Flux-Residual
  Residual-Control   Outer-Iter.   Inner-Iter.     Column Row Layer    Maximum-Head-Change  Column Row Layer    Maximum-Flux-Residual          L2-NORM 
          0                 1           2             4    7     1       0.2934305833E-01       4    7    1         0.1544786281E+01      0.3357818803E+01
          0                 2           2             4    7     1      -0.2854298387E-02       4    7    1        -0.1544799070E+00      0.3357682028E+00
          0                 3           2             4    7     1       0.1943669532E-03       4    7    1         0.1081358606E-01      0.2350248268E-01
          0                 4           1             4    7     1      -0.7734044010E-05       4    7    1        -0.4422763423E-03      0.9611931606E-03

    ------------------------------------------------
       NWT REQUIRED            4 OUTER ITERATIONS 
       AND A TOTAL OF          7 INNER ITERATIONS.
    ------------------------------------------------

 NO OUTPUT CONTROL FOR STRESS PERIOD   13   TIME STEP    7
 
 SOLVING FOR HEAD 
                                                   Max.-Head-Change                         Max.-Flux-Residual
  Residual-Control   Outer-Iter.   Inner-Iter.     Column Row Layer    Maximum-Head-Change  Column Row Layer    Maximum-Flux-Residual          L2-NORM 
          0                 1           2             4    7     1       0.2896173002E-01       4    7    1         0.1524624280E+01      0.3321052672E+01
          0                 2           2             4    7     1      -0.2817205050E-02       4    7    1        -0.1524636738E+00      0.3320928167E+00
          0                 3           2             4    7     1       0.1918410391E-03       4    7    1         0.1067244999E-01      0.2324527520E-01
          0                 4           1             4    7     1      -0.7633535082E-05       4    7    1        -0.4365038621E-03      0.9506633505E-03

    ------------------------------------------------
       NWT REQUIRED            4 OUTER ITERATIONS 
       AND A TOTAL OF          7 INNER ITERATIONS.
    ------------------------------------------------

 NO OUTPUT CONTROL FOR STRESS PERIOD   13   TIME STEP    8
 
 SOLVING FOR HEAD 
                                                   Max.-Head-Change                         Max.-Flux-Residual
  Residual-Control   Outer-Iter.   Inner-Iter.     Column Row Layer    Maximum-Head-Change  Column Row Layer    Maximum-Flux-Residual          L2-NORM 
          0                 1           2             4    7     1       0.2858694919E-01       4    7    1         0.1504808849E+01      0.3284924306E+01
          0                 2           2             4    7     1      -0.2780748617E-02       4    7    1        -0.1504820984E+00      0.3284810566E+00
          0                 3           2             4    7     1       0.1893584960E-03       4    7    1         0.1053373996E-01      0.2299256285E-01
          0                 4           1             4    7     1      -0.7534752722E-05       4    7    1        -0.4308306159E-03      0.9403213782E-03

    ------------------------------------------------
       NWT REQUIRED            4 OUTER ITERATIONS 
       AND A TOTAL OF          7 INNER ITERATIONS.
    ------------------------------------------------

 NO OUTPUT CONTROL FOR STRESS PERIOD   13   TIME STEP    9
 
 SOLVING FOR HEAD 
                                                   Max.-Head-Change                         Max.-Flux-Residual
  Residual-Control   Outer-Iter.   Inner-Iter.     Column Row Layer    Maximum-Head-Change  Column Row Layer    Maximum-Flux-Residual          L2-NORM 
          0                 1           2             4    7     1       0.2821871983E-01       4    7    1         0.1485340233E+01      0.3249404604E+01
          0                 2           2             4    7     1      -0.2744929476E-02       4    7    1        -0.1485352054E+00      0.3249300905E+00
          0                 3           2             4    7     1       0.1869193501E-03       4    7    1         0.1039745769E-01      0.2274408946E-01
          0                 4           1             4    7     1      -0.7437696817E-05       4    7    1        -0.4252566691E-03      0.9301826169E-03

    ------------------------------------------------
       NWT REQUIRED            4 OUTER ITERATIONS 
       AND A TOTAL OF          7 INNER ITERATIONS.
    ------------------------------------------------

 NO OUTPUT CONTROL FOR STRESS PERIOD   13   TIME STEP   10
 
 SOLVING FOR HEAD 
                                                   Max.-Head-Change                         Max.-Flux-Residual
  Residual-Control   Outer-Iter.   Inner-Iter.     Column Row Layer    Maximum-Head-Change  Column Row Layer    Maximum-Flux-Residual          L2-NORM 
          0                 1           2             4    7     1       0.2785677252E-01       4    7    1         0.1466203956E+01      0.3214501114E+01
          0                 2           2             4    7     1      -0.2709721421E-02       4    7    1        -0.1466215472E+00      0.3214405864E+00
          0                 3           2             4    7     1       0.1845218162E-03       4    7    1         0.1026350185E-01      0.2249988547E-01
          0                 4           1             4    7     1      -0.7342296216E-05       4    7    1        -0.4197778419E-03      0.9201869342E-03

    ------------------------------------------------
       NWT REQUIRED            4 OUTER ITERATIONS 
       AND A TOTAL OF          7 INNER ITERATIONS.
    ------------------------------------------------

 NO OUTPUT CONTROL FOR STRESS PERIOD   13   TIME STEP   11
 
 SOLVING FOR HEAD 
                                                   Max.-Head-Change                         Max.-Flux-Residual
  Residual-Control   Outer-Iter.   Inner-Iter.     Column Row Layer    Maximum-Head-Change  Column Row Layer    Maximum-Flux-Residual          L2-NORM 
          0                 1           2             4    7     1       0.2750111528E-01       4    7    1         0.1447400734E+01      0.3180186616E+01
          0                 2           2             4    7     1      -0.2675125230E-02       4    7    1        -0.1447411953E+00      0.3180099173E+00
          0                 3           2             4    7     1       0.1821659486E-03       4    7    1         0.1013187745E-01      0.2225986454E-01
          0                 4           1             4    7     1      -0.7248554373E-05       4    7    1        -0.4143944138E-03      0.9104178436E-03

    ------------------------------------------------
       NWT REQUIRED            4 OUTER ITERATIONS 
       AND A TOTAL OF          7 INNER ITERATIONS.
    ------------------------------------------------

 NO OUTPUT CONTROL FOR STRESS PERIOD   13   TIME STEP   12
 
 SOLVING FOR HEAD 
                                                   Max.-Head-Change                         Max.-Flux-Residual
  Residual-Control   Outer-Iter.   Inner-Iter.     Column Row Layer    Maximum-Head-Change  Column Row Layer    Maximum-Flux-Residual          L2-NORM 
          0                 1           2             4    7     1       0.2715161190E-01       4    7    1         0.1428923639E+01      0.3146432422E+01
          0                 2           2             4    7     1      -0.2641127655E-02       4    7    1        -0.1428934570E+00      0.3146339263E+00
          0                 3           2             4    7     1       0.1798508435E-03       4    7    1         0.1000253597E-01      0.2202358622E-01
          0                 4           1             4    7     1      -0.7156434333E-05       4    7    1        -0.4091043415E-03      0.9007351633E-03

    ------------------------------------------------
       NWT REQUIRED            4 OUTER ITERATIONS 
       AND A TOTAL OF          7 INNER ITERATIONS.
    ------------------------------------------------

 NO OUTPUT CONTROL FOR STRESS PERIOD   13   TIME STEP   13
 
 SOLVING FOR HEAD 
                                                   Max.-Head-Change                         Max.-Flux-Residual
  Residual-Control   Outer-Iter.   Inner-Iter.     Column Row Layer    Maximum-Head-Change  Column Row Layer    Maximum-Flux-Residual          L2-NORM 
          0                 1           2             4    7     1       0.2680800184E-01       4    7    1         0.1410758267E+01      0.3113250588E+01
          0                 2           2             4    7     1      -0.2607703350E-02       4    7    1        -0.1410768917E+00      0.3113178714E+00
          0                 3           2             4    7     1       0.1775747764E-03       4    7    1         0.9875376609E-02      0.2179153973E-01
          0                 4           1             4    7     1      -0.7065867364E-05       4    7    1        -0.4039035096E-03      0.8912130447E-03

    ------------------------------------------------
       NWT REQUIRED            4 OUTER ITERATIONS 
       AND A TOTAL OF          7 INNER ITERATIONS.
    ------------------------------------------------

 NO OUTPUT CONTROL FOR STRESS PERIOD   13   TIME STEP   14
 
 SOLVING FOR HEAD 
                                                   Max.-Head-Change                         Max.-Flux-Residual
  Residual-Control   Outer-Iter.   Inner-Iter.     Column Row Layer    Maximum-Head-Change  Column Row Layer    Maximum-Flux-Residual          L2-NORM 
          0                 1           2             4    7     1       0.2647043447E-01       4    7    1         0.1392913141E+01      0.3080613752E+01
          0                 2           2             4    7     1      -0.2574866848E-02       4    7    1        -0.1392923518E+00      0.3080547045E+00
          0                 3           2             4    7     1       0.1753387366E-03       4    7    1         0.9750459037E-02      0.2156318181E-01
          0                 4           1             4    7     1      -0.6976893070E-05       4    7    1        -0.3987943783E-03      0.8819151526E-03

    ------------------------------------------------
       NWT REQUIRED            4 OUTER ITERATIONS 
       AND A TOTAL OF          7 INNER ITERATIONS.
    ------------------------------------------------

 NO OUTPUT CONTROL FOR STRESS PERIOD   13   TIME STEP   15
 
 SOLVING FOR HEAD 
                                                   Max.-Head-Change                         Max.-Flux-Residual
  Residual-Control   Outer-Iter.   Inner-Iter.     Column Row Layer    Maximum-Head-Change  Column Row Layer    Maximum-Flux-Residual          L2-NORM 
          0                 1           2             4    7     1       0.2613850795E-01       4    7    1         0.1375366628E+01      0.3048502240E+01
          0                 2           2             4    7     1      -0.2542579056E-02       4    7    1        -0.1375376740E+00      0.3048440179E+00
          0                 3           2             4    7     1       0.1731400612E-03       4    7    1         0.9627631773E-02      0.2133843464E-01
          0                 4           1             4    7     1      -0.6889405765E-05       4    7    1        -0.3937707354E-03      0.8727111375E-03

    ------------------------------------------------
       NWT REQUIRED            4 OUTER ITERATIONS 
       AND A TOTAL OF          7 INNER ITERATIONS.
    ------------------------------------------------

 NO OUTPUT CONTROL FOR STRESS PERIOD   13   TIME STEP   16
 
 SOLVING FOR HEAD 
                                                   Max.-Head-Change                         Max.-Flux-Residual
  Residual-Control   Outer-Iter.   Inner-Iter.     Column Row Layer    Maximum-Head-Change  Column Row Layer    Maximum-Flux-Residual          L2-NORM 
          0                 1           2             4    7     1       0.2581224332E-01       4    7    1         0.1358119927E+01      0.3016913148E+01
          0                 2           2             4    7     1      -0.2510842022E-02       4    7    1        -0.1358129781E+00      0.3016855700E+00
          0                 3           2             4    7     1       0.1709788907E-03       4    7    1         0.9506903245E-02      0.2111744076E-01
          0                 4           1             4    7     1      -0.6803410858E-05       4    7    1        -0.3888329375E-03      0.8636965586E-03

    ------------------------------------------------
       NWT REQUIRED            4 OUTER ITERATIONS 
       AND A TOTAL OF          7 INNER ITERATIONS.
    ------------------------------------------------

 NO OUTPUT CONTROL FOR STRESS PERIOD   13   TIME STEP   17
 
 SOLVING FOR HEAD 
                                                   Max.-Head-Change                         Max.-Flux-Residual
  Residual-Control   Outer-Iter.   Inner-Iter.     Column Row Layer    Maximum-Head-Change  Column Row Layer    Maximum-Flux-Residual          L2-NORM 
          0                 1           2             4    7     1       0.2549165344E-01       4    7    1         0.1341174129E+01      0.2985841687E+01
          0                 2           2             4    7     1      -0.2479656997E-02       4    7    1        -0.1341183733E+00      0.2985787847E+00
          0                 3           2             4    7     1       0.1688553096E-03       4    7    1         0.9388281096E-02      0.2089997235E-01
          0                 4           1             4    7     1      -0.6718911344E-05       4    7    1        -0.3839812732E-03      0.8547908413E-03

    ------------------------------------------------
       NWT REQUIRED            4 OUTER ITERATIONS 
       AND A TOTAL OF          7 INNER ITERATIONS.
    ------------------------------------------------

 NO OUTPUT CONTROL FOR STRESS PERIOD   13   TIME STEP   18
 
 SOLVING FOR HEAD 
                                                   Max.-Head-Change                         Max.-Flux-Residual
  Residual-Control   Outer-Iter.   Inner-Iter.     Column Row Layer    Maximum-Head-Change  Column Row Layer    Maximum-Flux-Residual          L2-NORM 
          0                 1           2             4    7     1       0.2517634776E-01       4    7    1         0.1324507865E+01      0.2955259255E+01
          0                 2           2             4    7     1      -0.2448985992E-02       4    7    1        -0.1324517226E+00      0.2955208985E+00
          0                 3           2             4    7     1       0.1667667313E-03       4    7    1         0.9271615726E-02      0.2068597359E-01
          0                 4           1             4    7     1      -0.6635804759E-05       4    7    1        -0.3792096481E-03      0.8460922175E-03

    ------------------------------------------------
       NWT REQUIRED            4 OUTER ITERATIONS 
       AND A TOTAL OF          7 INNER ITERATIONS.
    ------------------------------------------------

 NO OUTPUT CONTROL FOR STRESS PERIOD   13   TIME STEP   19
 
 SOLVING FOR HEAD 
                                                   Max.-Head-Change                         Max.-Flux-Residual
  Residual-Control   Outer-Iter.   Inner-Iter.     Column Row Layer    Maximum-Head-Change  Column Row Layer    Maximum-Flux-Residual          L2-NORM 
          0                 1           2             4    7     1       0.2486648678E-01       4    7    1         0.1308130270E+01      0.2925162570E+01
          0                 2           2             4    7     1      -0.2418844617E-02       4    7    1        -0.1308139393E+00      0.2925115263E+00
          0                 3           2             4    7     1       0.1647142191E-03       4    7    1         0.9156971075E-02      0.2047533378E-01
          0                 4           1             4    7     1      -0.6554133469E-05       4    7    1        -0.3745206880E-03      0.8374107398E-03

    ------------------------------------------------
       NWT REQUIRED            4 OUTER ITERATIONS 
       AND A TOTAL OF          7 INNER ITERATIONS.
    ------------------------------------------------

 NO OUTPUT CONTROL FOR STRESS PERIOD   13   TIME STEP   20
 
 SOLVING FOR HEAD 
                                                   Max.-Head-Change                         Max.-Flux-Residual
  Residual-Control   Outer-Iter.   Inner-Iter.     Column Row Layer    Maximum-Head-Change  Column Row Layer    Maximum-Flux-Residual          L2-NORM 
          0                 1           2             4    7     1       0.2456195259E-01       4    7    1         0.1292034973E+01      0.2895546138E+01
          0                 2           2             4    7     1      -0.2389221404E-02       4    7    1        -0.1292043866E+00      0.2895501341E+00
          0                 3           2             4    7     1       0.1626969913E-03       4    7    1         0.9044302557E-02      0.2026804774E-01
          0                 4           1             4    7     1      -0.6473865931E-05       4    7    1        -0.3699125255E-03      0.8289364057E-03

    ------------------------------------------------
       NWT REQUIRED            4 OUTER ITERATIONS 
       AND A TOTAL OF          7 INNER ITERATIONS.
    ------------------------------------------------

 NO OUTPUT CONTROL FOR STRESS PERIOD   13   TIME STEP   21
 
 SOLVING FOR HEAD 
                                                   Max.-Head-Change                         Max.-Flux-Residual
  Residual-Control   Outer-Iter.   Inner-Iter.     Column Row Layer    Maximum-Head-Change  Column Row Layer    Maximum-Flux-Residual          L2-NORM 
          0                 1           2             4    7     1       0.2426248931E-01       4    7    1         0.1276208513E+01      0.2866383580E+01
          0                 2           2             4    7     1      -0.2360091462E-02       4    7    1        -0.1276217183E+00      0.2866341591E+00
          0                 3           2             4    7     1       0.1607133535E-03       4    7    1         0.8933515928E-02      0.2006396239E-01
          0                 4           1             4    7     1      -0.6394935599E-05       4    7    1        -0.3653813590E-03      0.8205793955E-03

    ------------------------------------------------
       NWT REQUIRED            4 OUTER ITERATIONS 
       AND A TOTAL OF          7 INNER ITERATIONS.
    ------------------------------------------------

 NO OUTPUT CONTROL FOR STRESS PERIOD   13   TIME STEP   22
 
 SOLVING FOR HEAD 
                                                   Max.-Head-Change                         Max.-Flux-Residual
  Residual-Control   Outer-Iter.   Inner-Iter.     Column Row Layer    Maximum-Head-Change  Column Row Layer    Maximum-Flux-Residual          L2-NORM 
          0                 1           2             4    7     1       0.2396799639E-01       4    7    1         0.1260644971E+01      0.2837684765E+01
          0                 2           2             4    7     1      -0.2331445009E-02       4    7    1        -0.1260653422E+00      0.2837645020E+00
          0                 3           2             4    7     1       0.1587626392E-03       4    7    1         0.8824569765E-02      0.1986310506E-01
          0                 4           1             4    7     1      -0.6317314614E-05       4    7    1        -0.3609254425E-03      0.8123974554E-03

    ------------------------------------------------
       NWT REQUIRED            4 OUTER ITERATIONS 
       AND A TOTAL OF          7 INNER ITERATIONS.
    ------------------------------------------------

 NO OUTPUT CONTROL FOR STRESS PERIOD   13   TIME STEP   23
 
 SOLVING FOR HEAD 
                                                   Max.-Head-Change                         Max.-Flux-Residual
  Residual-Control   Outer-Iter.   Inner-Iter.     Column Row Layer    Maximum-Head-Change  Column Row Layer    Maximum-Flux-Residual          L2-NORM 
          0                 1           2             4    7     1       0.2367850188E-01       4    7    1         0.1245346480E+01      0.2809425176E+01
          0                 2           2             4    7     1      -0.2303284774E-02       4    7    1        -0.1245354720E+00      0.2809387431E+00
          0                 3           2             4    7     1       0.1568450347E-03       4    7    1         0.8717479001E-02      0.1966532332E-01
          0                 4           1             4    7     1      -0.6241011494E-05       4    7    1        -0.3565454272E-03      0.8042952259E-03

    ------------------------------------------------
       NWT REQUIRED            4 OUTER ITERATIONS 
       AND A TOTAL OF          7 INNER ITERATIONS.
    ------------------------------------------------

 NO OUTPUT CONTROL FOR STRESS PERIOD   13   TIME STEP   24
 
 SOLVING FOR HEAD 
                                                   Max.-Head-Change                         Max.-Flux-Residual
  Residual-Control   Outer-Iter.   Inner-Iter.     Column Row Layer    Maximum-Head-Change  Column Row Layer    Maximum-Flux-Residual          L2-NORM 
          0                 1           2             4    7     1       0.2339389287E-01       4    7    1         0.1230307148E+01      0.2781597607E+01
          0                 2           2             4    7     1      -0.2275599773E-02       4    7    1        -0.1230315183E+00      0.2781561729E+00
          0                 3           2             4    7     1       0.1549597919E-03       4    7    1         0.8612202400E-02      0.1947055627E-01
          0                 4           1             4    7     1      -0.6165995731E-05       4    7    1        -0.3522396012E-03      0.7963121477E-03

    ------------------------------------------------
       NWT REQUIRED            4 OUTER ITERATIONS 
       AND A TOTAL OF          7 INNER ITERATIONS.
    ------------------------------------------------

 NO OUTPUT CONTROL FOR STRESS PERIOD   13   TIME STEP   25
 
 SOLVING FOR HEAD 
                                                   Max.-Head-Change                         Max.-Flux-Residual
  Residual-Control   Outer-Iter.   Inner-Iter.     Column Row Layer    Maximum-Head-Change  Column Row Layer    Maximum-Flux-Residual          L2-NORM 
          0                 1           2             4    7     1       0.2311393383E-01       4    7    1         0.1215513772E+01      0.2754201624E+01
          0                 2           2             4    7     1      -0.2248367098E-02       4    7    1        -0.1215521606E+00      0.2754167200E+00
          0                 3           2             4    7     1       0.1531053504E-03       4    7    1         0.8508647507E-02      0.1927881733E-01
          0                 4           1             4    7     1      -0.6092205502E-05       4    7    1        -0.3480041933E-03      0.7884901059E-03

    ------------------------------------------------
       NWT REQUIRED            4 OUTER ITERATIONS 
       AND A TOTAL OF          7 INNER ITERATIONS.
    ------------------------------------------------

 NO OUTPUT CONTROL FOR STRESS PERIOD   13   TIME STEP   26
 
 SOLVING FOR HEAD 
                                                   Max.-Head-Change                         Max.-Flux-Residual
  Residual-Control   Outer-Iter.   Inner-Iter.     Column Row Layer    Maximum-Head-Change  Column Row Layer    Maximum-Flux-Residual          L2-NORM 
          0                 1           2             4    7     1       0.2283865844E-01       4    7    1         0.1200968838E+01      0.2727221771E+01
          0                 2           2             4    7     1      -0.2221590020E-02       4    7    1        -0.1200976478E+00      0.2727188922E+00
          0                 3           2             4    7     1       0.1512819340E-03       4    7    1         0.8406831765E-02      0.1908999828E-01
          0                 4           1             4    7     1      -0.6019650361E-05       4    7    1        -0.3438399372E-03      0.7807653401E-03

    ------------------------------------------------
       NWT REQUIRED            4 OUTER ITERATIONS 
       AND A TOTAL OF          7 INNER ITERATIONS.
    ------------------------------------------------

 NO OUTPUT CONTROL FOR STRESS PERIOD   13   TIME STEP   27
 
 SOLVING FOR HEAD 
                                                   Max.-Head-Change                         Max.-Flux-Residual
  Residual-Control   Outer-Iter.   Inner-Iter.     Column Row Layer    Maximum-Head-Change  Column Row Layer    Maximum-Flux-Residual          L2-NORM 
          0                 1           2             4    7     1       0.2256796442E-01       4    7    1         0.1186666742E+01      0.2700645304E+01
          0                 2           2             4    7     1      -0.2195258593E-02       4    7    1        -0.1186674193E+00      0.2700613671E+00
          0                 3           2             4    7     1       0.1494888633E-03       4    7    1         0.8306715871E-02      0.1890397313E-01
          0                 4           1             4    7     1      -0.5948302103E-05       4    7    1        -0.3397451719E-03      0.7731609941E-03

    ------------------------------------------------
       NWT REQUIRED            4 OUTER ITERATIONS 
       AND A TOTAL OF          7 INNER ITERATIONS.
    ------------------------------------------------

 NO OUTPUT CONTROL FOR STRESS PERIOD   13   TIME STEP   28
 
 SOLVING FOR HEAD 
                                                   Max.-Head-Change                         Max.-Flux-Residual
  Residual-Control   Outer-Iter.   Inner-Iter.     Column Row Layer    Maximum-Head-Change  Column Row Layer    Maximum-Flux-Residual          L2-NORM 
          0                 1           2             4    7     1       0.2230189171E-01       4    7    1         0.1172609532E+01      0.2674474326E+01
          0                 2           2             4    7     1      -0.2169376702E-02       4    7    1        -0.1172616800E+00      0.2674444166E+00
          0                 3           2             4    7     1       0.1477264057E-03       4    7    1         0.8208314267E-02      0.1872079906E-01
          0                 4           1             4    7     1      -0.5878172816E-05       4    7    1        -0.3357205626E-03      0.7656634480E-03

    ------------------------------------------------
       NWT REQUIRED            4 OUTER ITERATIONS 
       AND A TOTAL OF          7 INNER ITERATIONS.
    ------------------------------------------------

 NO OUTPUT CONTROL FOR STRESS PERIOD   13   TIME STEP   29
 
 SOLVING FOR HEAD 
                                                   Max.-Head-Change                         Max.-Flux-Residual
  Residual-Control   Outer-Iter.   Inner-Iter.     Column Row Layer    Maximum-Head-Change  Column Row Layer    Maximum-Flux-Residual          L2-NORM 
          0                 1           2             4    7     1       0.2204006274E-01       4    7    1         0.1158777230E+01      0.2648692460E+01
          0                 2           2             4    7     1      -0.2143907618E-02       4    7    1        -0.1158784319E+00      0.2648663203E+00
          0                 3           2             4    7     1       0.1459920578E-03       4    7    1         0.8111487028E-02      0.1854033782E-01
          0                 4           1             4    7     1      -0.5809160957E-05       4    7    1        -0.3317603027E-03      0.7582674220E-03

    ------------------------------------------------
       NWT REQUIRED            4 OUTER ITERATIONS 
       AND A TOTAL OF          7 INNER ITERATIONS.
    ------------------------------------------------

 NO OUTPUT CONTROL FOR STRESS PERIOD   13   TIME STEP   30



 STREAM LISTING     PERIOD     13   STEP       30

 LAYER ROW COL. STREAM  RCH.  FLOW INTO     FLOW TO   FLOW OUT OF   OVRLND.     DIRECT     STREAM       STREAM     STREAM     STREAM   STREAMBED  STREAMBED
                SEG.NO.  NO.  STRM. RCH.    AQUIFER    STRM. RCH.    RUNOFF     PRECIP       ET          HEAD       DEPTH      WIDTH   CONDCTNC.   GRADIENT

   1    1    1     1     1    2.3000E+01  2.3574E-01   2.2764E+01  0.000E+00  0.000E+00  0.000E+00  1.09420E+03  1.148E+00  1.263E+01  5.684E-02  1.383E+00
   1    2    2     1     2    2.2764E+01  3.6445E-01   2.2400E+01  0.000E+00  0.000E+00  0.000E+00  1.08920E+03  1.143E+00  1.257E+01  8.797E-02  1.381E+00
   1    3    3     1     3    2.2400E+01  3.1019E-01   2.2089E+01  0.000E+00  0.000E+00  0.000E+00  1.08356E+03  1.138E+00  1.250E+01  7.497E-02  1.379E+00
   1    3    4     1     4    2.2089E+01  2.8513E-01   2.1804E+01  0.000E+00  0.000E+00  0.000E+00  1.07854E+03  1.133E+00  1.243E+01  6.899E-02  1.378E+00
   1    4    5     2     1    1.9804E+01  3.1551E-01   1.9489E+01  0.000E+00  0.000E+00  0.000E+00  1.07298E+03  1.045E+00  1.200E+01  7.800E-02  1.348E+00
   1    5    6     2     2    1.9489E+01  2.4216E-01   1.9247E+01  0.000E+00  0.000E+00  0.000E+00  1.06755E+03  1.036E+00  1.200E+01  6.000E-02  1.345E+00
   1    6    6     2     3    1.9247E+01  2.4170E-01   1.9005E+01  0.000E+00  0.000E+00  0.000E+00  1.06282E+03  1.028E+00  1.200E+01  6.000E-02  1.343E+00
   1    7    6     2     4    1.9005E+01  2.4123E-01   1.8764E+01  0.000E+00  0.000E+00  0.000E+00  1.05810E+03  1.020E+00  1.200E+01  6.000E-02  1.340E+00
   1    8    6     2     5    1.8764E+01  2.4076E-01   1.8523E+01  0.000E+00  0.000E+00  0.000E+00  1.05337E+03  1.013E+00  1.200E+01  6.000E-02  1.338E+00
   1    3    5     3     1    2.0000E+00  2.8252E-01   1.7175E+00  0.000E+00  0.000E+00  0.000E+00  1.07555E+03  1.909E+00  9.636E+00  7.227E-02  1.955E+00
   1    3    6     3     2    1.7175E+00  2.4905E-01   1.4684E+00  0.000E+00  0.000E+00  0.000E+00  1.07264E+03  1.727E+00  8.909E+00  6.682E-02  1.864E+00
   1    3    7     3     3    1.4684E+00  1.9718E-01   1.2712E+00  0.000E+00  0.000E+00  0.000E+00  1.06987E+03  1.555E+00  8.218E+00  5.547E-02  1.777E+00
   1    4    8     3     4    1.2712E+00  2.2567E-01   1.0456E+00  0.000E+00  0.000E+00  0.000E+00  1.06682E+03  1.364E+00  7.455E+00  6.709E-02  1.682E+00
   1    5    8     3     5    1.0456E+00  1.5790E-01   8.8768E-01  0.000E+00  0.000E+00  0.000E+00  1.06362E+03  1.164E+00  6.655E+00  4.991E-02  1.582E+00
   1    6    8     3     6    8.8768E-01  5.5980E-02   8.3170E-01  0.000E+00  0.000E+00  0.000E+00  1.06158E+03  1.036E+00  6.145E+00  1.844E-02  1.518E+00
   1    5   10     4     1    1.0000E+01  9.0919E-02   9.9091E+00  0.000E+00  0.000E+00  0.000E+00  1.07836E+03  6.368E-01  1.000E+01  2.500E-02  1.212E+00
   1    5    9     4     2    9.9091E+00  1.8158E-01   9.7275E+00  0.000E+00  0.000E+00  0.000E+00  1.07154E+03  6.315E-01  1.000E+01  5.000E-02  1.211E+00
   1    6    8     4     3    9.7275E+00  1.2689E-01   9.6006E+00  0.000E+00  0.000E+00  0.000E+00  1.06381E+03  6.256E-01  1.000E+01  3.500E-02  1.209E+00
   1    6    8     5     1    1.0432E+01  2.2686E-01   1.0205E+01  0.000E+00  0.000E+00  0.000E+00  1.05868E+03  6.790E-01  1.542E+01  6.166E-02  1.226E+00
   1    7    7     5     2    1.0205E+01  2.7894E-01   9.9265E+00  0.000E+00  0.000E+00  0.000E+00  1.05417E+03  6.732E-01  1.519E+01  7.594E-02  1.224E+00
   1    8    7     5     3    9.9265E+00  1.9221E-01   9.7343E+00  0.000E+00  0.000E+00  0.000E+00  1.04992E+03  6.676E-01  1.497E+01  5.241E-02  1.223E+00
   1    8    6     5     4    9.7343E+00  1.3577E-01   9.5985E+00  0.000E+00  0.000E+00  0.000E+00  1.04691E+03  6.637E-01  1.482E+01  3.706E-02  1.221E+00
   1    9    6     6     1    2.8121E+01  2.5841E-01   2.7863E+01  0.000E+00  0.000E+00  0.000E+00  1.04403E+03  1.307E+00  1.200E+01  6.000E-02  1.436E+00
   1   10    7     6     2    2.7863E+01  2.5797E-01   2.7605E+01  0.000E+00  0.000E+00  0.000E+00  1.03948E+03  1.300E+00  1.200E+01  6.000E-02  1.433E+00
   1   11    7     6     3    2.7605E+01  2.5753E-01   2.7348E+01  0.000E+00  0.000E+00  0.000E+00  1.03493E+03  1.292E+00  1.200E+01  6.000E-02  1.431E+00
   1   12    7     6     4    2.7348E+01  2.5710E-01   2.7090E+01  0.000E+00  0.000E+00  0.000E+00  1.03038E+03  1.285E+00  1.200E+01  6.000E-02  1.428E+00
   1   13    7     6     5    2.7090E+01  3.8520E-04   2.7090E+01  0.000E+00  0.000E+00  0.000E+00  1.02719E+03  1.281E+00  1.200E+01  2.400E-02  5.350E-03
   1   14    9     7     1    1.5000E+02  1.3296E+00   1.4867E+02  0.000E+00  0.000E+00  0.000E+00  1.03987E+03  2.288E+00  5.529E+01  5.593E-01  7.924E-01
   1   13    8     7     2    1.4867E+02  1.8004E+00   1.4687E+02  0.000E+00  0.000E+00  0.000E+00  1.03478E+03  2.279E+00  5.526E+01  6.148E-01  9.762E-01
   1   13    7     7     3    1.4687E+02  1.4050E+00   1.4546E+02  0.000E+00  0.000E+00  0.000E+00  1.02969E+03  2.271E+00  5.522E+01  5.585E-01  8.386E-01
   1   13    6     8     1    1.7256E+02  8.7300E-01   1.7168E+02  0.000E+00  0.000E+00  0.000E+00  1.02484E+03  2.966E+00  4.301E+01  4.382E-01  6.640E-01
   1   13    5     8     2    1.7168E+02  1.3494E-01   1.7155E+02  0.000E+00  0.000E+00  0.000E+00  1.01859E+03  2.963E+00  4.296E+01  4.378E-01  1.028E-01
   1   13    4     8     3    1.7155E+02 -2.5576E+00   1.7410E+02  0.000E+00  0.000E+00  0.000E+00  1.01235E+03  2.971E+00  4.307E+01  4.389E+00 -1.942E-01
   1   13    3     8     4    1.7410E+02 -3.7254E+00   1.7783E+02  0.000E+00  0.000E+00  0.000E+00  1.00612E+03  2.991E+00  4.336E+01  4.419E+00 -2.810E-01
   1   13    2     8     5    1.7783E+02 -2.6050E+00   1.8044E+02  0.000E+00  0.000E+00  0.000E+00  9.99886E+02  3.011E+00  4.366E+01  4.449E+00 -1.952E-01
   1   13    1     8     6    1.8044E+02 -2.0003E+00   1.8244E+02  0.000E+00  0.000E+00  0.000E+00  9.94900E+02  3.025E+00  4.386E+01  2.682E+00 -2.486E-01





UNSATURATED ZONE PACKAGE VOLUMETRIC BUDGET FOR  TIME STEP    30 STRESS PERIOD   13
  ------------------------------------------------------------------------------



     CUMULATIVE VOLUMES      L**3       RATES FOR THIS TIME STEP      L**3/T
     ------------------                 ------------------------

           IN:                                      IN:
           ---                                      ---
        INFILTRATION =   430722466.9597          INFILTRATION =           0.8475

          OUT:                                     OUT:
          ----                                     ----
              UZF ET =   430039554.6692                UZF ET =           0.7500
        UZF RECHARGE =       73224.0000          UZF RECHARGE =       0.0000E+00

            IN - OUT =      609688.2905              IN - OUT =       9.7500E-02

          STORAGE:                                 STORAGE:
          --------                                 --------
      STORAGE CHANGE =      609686.6004        STORAGE CHANGE =       9.7500E-02

 PERCENT DISCREPANCY IS DIFFERENCE BETWEEN IN-OUT MINUS CHANGE IN STORAGE
 DIVIDED BY THE AVERAGE OF IN AND OUT TIMES 100

 PERCENT DISCREPANCY =           0.00     PERCENT DISCREPANCY =           0.00






1
  VOLUMETRIC BUDGET FOR AGRICULTURAL FIELDS AT  END OF TIME STEP   30, STRESS PERIOD  13
  ------------------------------------------------------------------------------

     CUMULATIVE VOLUMES      L**3       RATES FOR THIS TIME STEP      L**3/T
     ------------------                 ------------------------

           IN:                                      IN:
           ---                                      ---
               AG WELLS  =   403901728.0000                 AG WELLS  =           0.0000
      DIVERSION SEGMENTS =           0.0000        DIVERSION SEGMENTS =           0.0000
       IRRIGATION PONDS  =           0.0000         IRRIGATION PONDS  =           0.0000
           GW IRRIGATION =           0.0000             GW IRRIGATION =           0.0000
           SW IRRIGATION =           0.0000             SW IRRIGATION =           0.0000
        SYSTEM LOSSES GW =           0.0000          SYSTEM LOSSES GW =           0.0000
        SYSTEM LOSSES SW =           0.0000          SYSTEM LOSSES SW =           0.0000

                TOTAL IN =   403901728.0000                  TOTAL IN =           0.0000

          OUT:                                     OUT:
          ----                                     ----
               AG WELLS  =           0.0000                 AG WELLS  =           0.0000
      DIVERSION SEGMENTS =           0.0000        DIVERSION SEGMENTS =           0.0000
       IRRIGATION PONDS  =           0.0000         IRRIGATION PONDS  =           0.0000
           GW IRRIGATION =   403901728.0000             GW IRRIGATION =           0.0000
           SW IRRIGATION =           0.0000             SW IRRIGATION =           0.0000
        SYSTEM LOSSES GW =           0.0000          SYSTEM LOSSES GW =           0.0000
        SYSTEM LOSSES SW =           0.0000          SYSTEM LOSSES SW =           0.0000

               TOTAL OUT =   403901728.0000                 TOTAL OUT =           0.0000

                IN - OUT =           0.0000                  IN - OUT =           0.0000

     PERCENT DISCREPANCY =           0.00         PERCENT DISCREPANCY =           0.00



1
  VOLUMETRIC BUDGET FOR ENTIRE MODEL AT END OF TIME STEP   30, STRESS PERIOD  13
  ------------------------------------------------------------------------------

     CUMULATIVE VOLUMES      L**3       RATES FOR THIS TIME STEP      L**3/T
     ------------------                 ------------------------

           IN:                                      IN:
           ---                                      ---
             STORAGE     =   533317600.0000               STORAGE     =           7.7035
       CONSTANT HEAD     =           0.0000         CONSTANT HEAD     =           0.0000
     HEAD DEP BOUNDS     =     9032905.0000       HEAD DEP BOUNDS     =           0.2853
      STREAM LEAKAGE     =   394448288.0000        STREAM LEAKAGE     =          11.4527
        UZF RECHARGE     =       73223.9531          UZF RECHARGE     =           0.0000
               GW ET     =           0.0000                 GW ET     =           0.0000
     SURFACE LEAKAGE     =           0.0000       SURFACE LEAKAGE     =           0.0000
           AG WELLS      =           0.0000             AG WELLS      =           0.0000

                TOTAL IN =   936872064.0000                  TOTAL IN =          19.4415

          OUT:                                     OUT:
          ----                                     ----
             STORAGE     =   181203440.0000               STORAGE     =           8.2627
       CONSTANT HEAD     =           0.0000         CONSTANT HEAD     =           0.0000
     HEAD DEP BOUNDS     =     9325094.0000       HEAD DEP BOUNDS     =           0.2905
      STREAM LEAKAGE     =   328681056.0000        STREAM LEAKAGE     =          10.8883
        UZF RECHARGE     =           0.0000          UZF RECHARGE     =           0.0000
               GW ET     =    13763951.0000                 GW ET     =           0.0000
     SURFACE LEAKAGE     =           0.0000       SURFACE LEAKAGE     =           0.0000
           AG WELLS      =   403901728.0000             AG WELLS      =           0.0000

               TOTAL OUT =   936875264.0000                 TOTAL OUT =          19.4415

                IN - OUT =       -3200.0000                  IN - OUT =       7.6294E-06

     PERCENT DISCREPANCY =          -0.00         PERCENT DISCREPANCY =           0.00






         TIME SUMMARY AT END OF TIME STEP   30 IN STRESS PERIOD   13
                    SECONDS     MINUTES      HOURS       DAYS        YEARS
                    -----------------------------------------------------------
   TIME STEP LENGTH  87667.      1461.1      24.352      1.0147     2.77799E-03
 STRESS PERIOD TIME 2.63000E+06  43833.      730.56      30.440     8.33397E-02
         TOTAL TIME 3.16463E+07 5.27439E+05  8790.6      366.28      1.0028    
1
1
                            STRESS PERIOD NO.   14, LENGTH =   2630000.    
                            -----------------------------------------------

                              NUMBER OF TIME STEPS =    30

                               MULTIPLIER FOR DELT =     1.000

                            INITIAL TIME STEP SIZE =   87666.66    

 REUSING NON-PARAMETER GHB CELLS FROM LAST STRESS PERIOD

      2 GHB CELLS

 REUSING STREAM SEGMENT DATA FROM LAST STRESS PERIOD



            AREAL INFILTRATION RATE
 READING ON UNIT   19 WITH FORMAT: (FREE)              

            1           2           3           4           5           6           7           8           9          10
 ........................................................................................................................
   1   1.0000E-10  2.0000E-10   0.000       0.000       0.000       0.000       0.000       0.000       0.000       0.000    
   2   2.0000E-10  1.0000E-10  2.0000E-10   0.000       0.000      8.0000E-10  8.0000E-10  5.0000E-10   0.000       0.000    
   3    0.000      5.0000E-10  1.0000E-10  1.0000E-10  8.0000E-10  8.0000E-10  5.0000E-10  5.0000E-10   0.000       0.000    
   4   8.0000E-10  5.0000E-10  1.0000E-10  1.0000E-10  1.0000E-10  1.0000E-10  1.0000E-10  1.0000E-10  2.0000E-10   0.000    
   5   8.0000E-10  5.0000E-10  1.0000E-10  1.0000E-10  1.0000E-10  1.0000E-10  1.0000E-10  1.0000E-10  1.0000E-10  1.0000E-10
   6   8.0000E-10  5.0000E-10  5.0000E-10  2.0000E-10  2.0000E-10  1.0000E-10  1.0000E-10  1.0000E-10  1.0000E-10  5.0000E-10
   7   8.0000E-10  5.0000E-10  5.0000E-10  2.0000E-10  2.0000E-10  1.0000E-10  1.0000E-10  2.0000E-10  2.0000E-10   0.000    
   8    0.000      5.0000E-10  5.0000E-10  2.0000E-10  2.0000E-10  1.0000E-10  1.0000E-10  2.0000E-10  5.0000E-10   0.000    
   9    0.000      5.0000E-10  5.0000E-10  2.0000E-10  2.0000E-10  1.0000E-10  1.0000E-10  2.0000E-10  5.0000E-10   0.000    
  10    0.000      5.0000E-10  5.0000E-10  2.0000E-10  2.0000E-10  1.0000E-10  1.0000E-10  2.0000E-10  5.0000E-10  8.0000E-10
  11    0.000      1.0000E-10  1.0000E-10  1.0000E-10  1.0000E-10  1.0000E-10  1.0000E-10  2.0000E-10  5.0000E-10   0.000    
  12   1.0000E-10  1.0000E-10  1.0000E-10  1.0000E-10  1.0000E-10  1.0000E-10  1.0000E-10  1.0000E-10  2.0000E-10   0.000    
  13   1.0000E-10  1.0000E-10  2.0000E-10  2.0000E-10  2.0000E-10  2.0000E-10  2.0000E-10  1.0000E-10  1.0000E-10   0.000    
  14    0.000      2.0000E-10  5.0000E-10  5.0000E-10  5.0000E-10  5.0000E-10  5.0000E-10  2.0000E-10  1.0000E-10   0.000    
  15    0.000       0.000      8.0000E-10  8.0000E-10  8.0000E-10  8.0000E-10   0.000       0.000       0.000       0.000    

                  ET RATE =  5.000000E-10

 USING ET EXTINCTION DEPTH FROM PREVIOUS STRESS PERIOD. CURRENT PERIOD IS:      14

 USING EXTINCTION WATER CONTENT FROM PREVIOUS STRESS PERIOD. CURRENT PERIOD IS:      14

 USING AIR ENTRY PRESSURE FROM PREVIOUS STRESS PERIOD. CURRENT PERIOD IS:      14

 USING ROOT PRESSURE HEAD FROM PREVIOUS STRESS PERIOD. CURRENT PERIOD IS:      14

 USING ROOT ACTIVITY FROM PREVIOUS STRESS PERIOD. CURRENT PERIOD IS:      14

 PROCESSING AG STRESS PERIOD DATA

 READING AG STRESS PERIOD DATA

 READING IRRIGATION WELL

 NO IRRPOND OR REUSING IRRPOND DATA FROM LAST STRESS PERIOD

 END PROCESSING AG STRESS PERIOD DATA OPTIONS
 
 SOLVING FOR HEAD 
                                                   Max.-Head-Change                         Max.-Flux-Residual
  Residual-Control   Outer-Iter.   Inner-Iter.     Column Row Layer    Maximum-Head-Change  Column Row Layer    Maximum-Flux-Residual          L2-NORM 
          0                 1           2             4    7     1       0.2178251321E-01       4    7    1         0.1145172308E+01      0.2626755054E+01
          0                 2           2             4    7     1      -0.2118854814E-02       4    7    1        -0.1145179223E+00      0.2626147329E+00
          0                 3           2             4    7     1       0.1442860574E-03       4    7    1         0.8016251482E-02      0.1838183358E-01
          0                 4           1             4    7     1      -0.5741277810E-05       4    7    1        -0.3278651577E-03      0.7517332300E-03

    ------------------------------------------------
       NWT REQUIRED            4 OUTER ITERATIONS 
       AND A TOTAL OF          7 INNER ITERATIONS.
    ------------------------------------------------

 NO OUTPUT CONTROL FOR STRESS PERIOD   14   TIME STEP    1
 
 SOLVING FOR HEAD 
                                                   Max.-Head-Change                         Max.-Flux-Residual
  Residual-Control   Outer-Iter.   Inner-Iter.     Column Row Layer    Maximum-Head-Change  Column Row Layer    Maximum-Flux-Residual          L2-NORM 
          0                 1           2             4    7     1       0.2152926367E-01       4    7    1         0.1131796618E+01      0.2610954597E+01
          0                 2           2             4    7     1      -0.2094220290E-02       4    7    1        -0.1131803365E+00      0.2610546581E+00
          0                 3           2             4    7     1       0.1426085401E-03       4    7    1         0.7922620586E-02      0.1827016349E-01
          0                 4           1             4    7     1      -0.5674527633E-05       4    7    1        -0.3240356614E-03      0.7469609234E-03

    ------------------------------------------------
       NWT REQUIRED            4 OUTER ITERATIONS 
       AND A TOTAL OF          7 INNER ITERATIONS.
    ------------------------------------------------

 NO OUTPUT CONTROL FOR STRESS PERIOD   14   TIME STEP    2
 
 SOLVING FOR HEAD 
                                                   Max.-Head-Change                         Max.-Flux-Residual
  Residual-Control   Outer-Iter.   Inner-Iter.     Column Row Layer    Maximum-Head-Change  Column Row Layer    Maximum-Flux-Residual          L2-NORM 
          0                 1           2             4    7     1       0.2127995274E-01       4    7    1         0.1118629174E+01      0.2585545716E+01
          0                 2           2             4    7     1      -0.2069968893E-02       4    7    1        -0.1118635756E+00      0.2585181601E+00
          0                 3           2             4    7     1       0.1409571123E-03       4    7    1         0.7830447448E-02      0.1809287835E-01
          0                 4           1             4    7     1      -0.5608815907E-05       4    7    1        -0.3202657786E-03      0.7397756320E-03

    ------------------------------------------------
       NWT REQUIRED            4 OUTER ITERATIONS 
       AND A TOTAL OF          7 INNER ITERATIONS.
    ------------------------------------------------

 NO OUTPUT CONTROL FOR STRESS PERIOD   14   TIME STEP    3
 
 SOLVING FOR HEAD 
                                                   Max.-Head-Change                         Max.-Flux-Residual
  Residual-Control   Outer-Iter.   Inner-Iter.     Column Row Layer    Maximum-Head-Change  Column Row Layer    Maximum-Flux-Residual          L2-NORM 
          0                 1           2             4    7     1       0.2103476814E-01       4    7    1         0.1105680642E+01      0.2560592278E+01
          0                 2           2             4    7     1      -0.2046118880E-02       4    7    1        -0.1105687065E+00      0.2560265955E+00
          0                 3           2             4    7     1       0.1393330172E-03       4    7    1         0.7739806724E-02      0.1791895674E-01
          0                 4           1             4    7     1      -0.5544191677E-05       4    7    1        -0.3165585649E-03      0.7327607365E-03

    ------------------------------------------------
       NWT REQUIRED            4 OUTER ITERATIONS 
       AND A TOTAL OF          7 INNER ITERATIONS.
    ------------------------------------------------

 NO OUTPUT CONTROL FOR STRESS PERIOD   14   TIME STEP    4
 
 SOLVING FOR HEAD 
                                                   Max.-Head-Change                         Max.-Flux-Residual
  Residual-Control   Outer-Iter.   Inner-Iter.     Column Row Layer    Maximum-Head-Change  Column Row Layer    Maximum-Flux-Residual          L2-NORM 
          0                 1           2             4    7     1       0.2079348804E-01       4    7    1         0.1092938702E+01      0.2536077073E+01
          0                 2           2             4    7     1      -0.2022648676E-02       4    7    1        -0.1092944969E+00      0.2535783960E+00
          0                 3           2             4    7     1       0.1377347857E-03       4    7    1         0.7650612170E-02      0.1774778353E-01
          0                 4           1             4    7     1      -0.5480596572E-05       4    7    1        -0.3129105066E-03      0.7257083366E-03

    ------------------------------------------------
       NWT REQUIRED            4 OUTER ITERATIONS 
       AND A TOTAL OF          7 INNER ITERATIONS.
    ------------------------------------------------

 NO OUTPUT CONTROL FOR STRESS PERIOD   14   TIME STEP    5
 
 SOLVING FOR HEAD 
                                                   Max.-Head-Change                         Max.-Flux-Residual
  Residual-Control   Outer-Iter.   Inner-Iter.     Column Row Layer    Maximum-Head-Change  Column Row Layer    Maximum-Flux-Residual          L2-NORM 
          0                 1           2             4    7     1       0.2055616321E-01       4    7    1         0.1080406555E+01      0.2511966571E+01
          0                 2           2             4    7     1      -0.1999563218E-02       4    7    1        -0.1080412672E+00      0.2511702547E+00
          0                 3           2             4    7     1       0.1361627538E-03       4    7    1         0.7562886189E-02      0.1757953603E-01
          0                 4           1             4    7     1      -0.5418044063E-05       4    7    1        -0.3093225139E-03      0.7189124637E-03

    ------------------------------------------------
       NWT REQUIRED            4 OUTER ITERATIONS 
       AND A TOTAL OF          7 INNER ITERATIONS.
    ------------------------------------------------

 NO OUTPUT CONTROL FOR STRESS PERIOD   14   TIME STEP    6
 
 SOLVING FOR HEAD 
                                                   Max.-Head-Change                         Max.-Flux-Residual
  Residual-Control   Outer-Iter.   Inner-Iter.     Column Row Layer    Maximum-Head-Change  Column Row Layer    Maximum-Flux-Residual          L2-NORM 
          0                 1           2             4    7     1       0.2032257309E-01       4    7    1         0.1068072130E+01      0.2488252700E+01
          0                 2           2             4    7     1      -0.1976841052E-02       4    7    1        -0.1068078100E+00      0.2488014859E+00
          0                 3           2             4    7     1       0.1346154604E-03       4    7    1         0.7476544280E-02      0.1741397127E-01
          0                 4           1             4    7     1      -0.5356475664E-05       4    7    1        -0.3057911140E-03      0.7121316239E-03

    ------------------------------------------------
       NWT REQUIRED            4 OUTER ITERATIONS 
       AND A TOTAL OF          7 INNER ITERATIONS.
    ------------------------------------------------

 NO OUTPUT CONTROL FOR STRESS PERIOD   14   TIME STEP    7
 
 SOLVING FOR HEAD 
                                                   Max.-Head-Change                         Max.-Flux-Residual
  Residual-Control   Outer-Iter.   Inner-Iter.     Column Row Layer    Maximum-Head-Change  Column Row Layer    Maximum-Flux-Residual          L2-NORM 
          0                 1           2             4    7     1       0.2009277657E-01       4    7    1         0.1055938697E+01      0.2464925731E+01
          0                 2           2             4    7     1      -0.1954487905E-02       4    7    1        -0.1055944524E+00      0.2464709924E+00
          0                 3           2             4    7     1       0.1330932961E-03       4    7    1         0.7391609355E-02      0.1725103189E-01
          0                 4           1             4    7     1      -0.5295907033E-05       4    7    1        -0.3023172610E-03      0.7055271621E-03

    ------------------------------------------------
       NWT REQUIRED            4 OUTER ITERATIONS 
       AND A TOTAL OF          7 INNER ITERATIONS.
    ------------------------------------------------

 NO OUTPUT CONTROL FOR STRESS PERIOD   14   TIME STEP    8
 
 SOLVING FOR HEAD 
                                                   Max.-Head-Change                         Max.-Flux-Residual
  Residual-Control   Outer-Iter.   Inner-Iter.     Column Row Layer    Maximum-Head-Change  Column Row Layer    Maximum-Flux-Residual          L2-NORM 
          0                 1           2             4    7     1       0.1986655346E-01       4    7    1         0.1043994602E+01      0.2441965663E+01
          0                 2           2             4    7     1      -0.1932482359E-02       4    7    1        -0.1044000290E+00      0.2441770233E+00
          0                 3           2             4    7     1       0.1315948018E-03       4    7    1         0.7307999799E-02      0.1709061061E-01
          0                 4           1             4    7     1      -0.5236280377E-05       4    7    1        -0.2988976300E-03      0.6993853578E-03

    ------------------------------------------------
       NWT REQUIRED            4 OUTER ITERATIONS 
       AND A TOTAL OF          7 INNER ITERATIONS.
    ------------------------------------------------

 NO OUTPUT CONTROL FOR STRESS PERIOD   14   TIME STEP    9
 
 SOLVING FOR HEAD 
                                                   Max.-Head-Change                         Max.-Flux-Residual
  Residual-Control   Outer-Iter.   Inner-Iter.     Column Row Layer    Maximum-Head-Change  Column Row Layer    Maximum-Flux-Residual          L2-NORM 
          0                 1           2             4    7     1       0.1964397082E-01       4    7    1         0.1032243136E+01      0.2419364273E+01
          0                 2           2             4    7     1      -0.1910830937E-02       4    7    1        -0.1032248688E+00      0.2419186770E+00
          0                 3           2             4    7     1       0.1301204223E-03       4    7    1         0.7225738693E-02      0.1693268521E-01
          0                 4           1             4    7     1      -0.5177613654E-05       4    7    1        -0.2955331383E-03      0.6959972269E-03

    ------------------------------------------------
       NWT REQUIRED            4 OUTER ITERATIONS 
       AND A TOTAL OF          7 INNER ITERATIONS.
    ------------------------------------------------

 NO OUTPUT CONTROL FOR STRESS PERIOD   14   TIME STEP   10
 
 SOLVING FOR HEAD 
                                                   Max.-Head-Change                         Max.-Flux-Residual
  Residual-Control   Outer-Iter.   Inner-Iter.     Column Row Layer    Maximum-Head-Change  Column Row Layer    Maximum-Flux-Residual          L2-NORM 
          0                 1           2             4    7     1       0.1942494251E-01       4    7    1         0.1020680422E+01      0.2397102030E+01
          0                 2           2             4    7     1      -0.1889525261E-02       4    7    1        -0.1020685843E+00      0.2396939917E+00
          0                 3           2             4    7     1       0.1286695869E-03       4    7    1         0.7144798879E-02      0.1677713914E-01
          0                 4           1             4    7     1      -0.5119883610E-05       4    7    1        -0.2922226954E-03      0.6861867896E-03

    ------------------------------------------------
       NWT REQUIRED            4 OUTER ITERATIONS 
       AND A TOTAL OF          7 INNER ITERATIONS.
    ------------------------------------------------

 NO OUTPUT CONTROL FOR STRESS PERIOD   14   TIME STEP   11
 
 SOLVING FOR HEAD 
                                                   Max.-Head-Change                         Max.-Flux-Residual
  Residual-Control   Outer-Iter.   Inner-Iter.     Column Row Layer    Maximum-Head-Change  Column Row Layer    Maximum-Flux-Residual          L2-NORM 
          0                 1           2             4    7     1       0.1920926394E-01       4    7    1         0.1009294641E+01      0.2375181349E+01
          0                 2           2             4    7     1      -0.1868545426E-02       4    7    1        -0.1009299933E+00      0.2375033031E+00
          0                 3           2             4    7     1       0.1272409395E-03       4    7    1         0.7065097577E-02      0.1662386022E-01
          0                 4           1             4    7     1      -0.5063036249E-05       4    7    1        -0.2889629113E-03      0.6797844231E-03

    ------------------------------------------------
       NWT REQUIRED            4 OUTER ITERATIONS 
       AND A TOTAL OF          7 INNER ITERATIONS.
    ------------------------------------------------

 NO OUTPUT CONTROL FOR STRESS PERIOD   14   TIME STEP   12
 
 SOLVING FOR HEAD 
                                                   Max.-Head-Change                         Max.-Flux-Residual
  Residual-Control   Outer-Iter.   Inner-Iter.     Column Row Layer    Maximum-Head-Change  Column Row Layer    Maximum-Flux-Residual          L2-NORM 
          0                 1           2             4    7     1       0.1899699896E-01       4    7    1         0.9980898917E+00      0.2353577023E+01
          0                 2           2             4    7     1      -0.1847898141E-02       4    7    1        -0.9980950595E-01      0.2353760718E+00
          0                 3           2             4    7     1       0.1258349379E-03       4    7    1         0.6986663547E-02      0.1647508138E-01
          0                 4           1             4    7     1      -0.5007090452E-05       4    7    1        -0.2857549666E-03      0.6737803169E-03

    ------------------------------------------------
       NWT REQUIRED            4 OUTER ITERATIONS 
       AND A TOTAL OF          7 INNER ITERATIONS.
    ------------------------------------------------

 NO OUTPUT CONTROL FOR STRESS PERIOD   14   TIME STEP   13
 
 SOLVING FOR HEAD 
                                                   Max.-Head-Change                         Max.-Flux-Residual
  Residual-Control   Outer-Iter.   Inner-Iter.     Column Row Layer    Maximum-Head-Change  Column Row Layer    Maximum-Flux-Residual          L2-NORM 
          0                 1           2             4    7     1       0.1878806944E-01       4    7    1         0.9870621061E+00      0.2332271547E+01
          0                 2           2             4    7     1      -0.1827574322E-02       4    7    1        -0.9870671524E-01      0.2332146314E+00
          0                 3           1             4    7     1       0.1244509653E-03       4    7    1         0.6909468285E-02      0.1632386005E-01
          0                 4           1             4    7     1      -0.4952023078E-05       4    7    1        -0.2825976660E-03      0.6675776249E-03

    ------------------------------------------------
       NWT REQUIRED            4 OUTER ITERATIONS 
       AND A TOTAL OF          6 INNER ITERATIONS.
    ------------------------------------------------

 NO OUTPUT CONTROL FOR STRESS PERIOD   14   TIME STEP   14
 
 SOLVING FOR HEAD 
                                                   Max.-Head-Change                         Max.-Flux-Residual
  Residual-Control   Outer-Iter.   Inner-Iter.     Column Row Layer    Maximum-Head-Change  Column Row Layer    Maximum-Flux-Residual          L2-NORM 
          0                 1           2             4    7     1       0.1858241048E-01       4    7    1         0.9762073106E+00      0.2311251159E+01
          0                 2           2             4    7     1      -0.1807569139E-02       4    7    1        -0.9762122389E-01      0.2311135401E+00
          0                 3           1             4    7     1       0.1230886880E-03       4    7    1         0.6833483954E-02      0.1617684201E-01
          0                 4           1             4    7     1      -0.4897816744E-05       4    7    1        -0.2794898974E-03      0.6615498707E-03

    ------------------------------------------------
       NWT REQUIRED            4 OUTER ITERATIONS 
       AND A TOTAL OF          6 INNER ITERATIONS.
    ------------------------------------------------

 NO OUTPUT CONTROL FOR STRESS PERIOD   14   TIME STEP   15
 
 SOLVING FOR HEAD 
                                                   Max.-Head-Change                         Max.-Flux-Residual
  Residual-Control   Outer-Iter.   Inner-Iter.     Column Row Layer    Maximum-Head-Change  Column Row Layer    Maximum-Flux-Residual          L2-NORM 
          0                 1           2             4    7     1       0.1837994949E-01       4    7    1         0.9655220629E+00      0.2290540841E+01
          0                 2           2             4    7     1      -0.1787875036E-02       4    7    1        -0.9655268762E-01      0.2290434548E+00
          0                 3           1             4    7     1       0.1217475944E-03       4    7    1         0.6758686506E-02      0.1603207410E-01
          0                 4           1             4    7     1      -0.4844453145E-05       4    7    1        -0.2764306741E-03      0.6556549583E-03

    ------------------------------------------------
       NWT REQUIRED            4 OUTER ITERATIONS 
       AND A TOTAL OF          6 INNER ITERATIONS.
    ------------------------------------------------

 NO OUTPUT CONTROL FOR STRESS PERIOD   14   TIME STEP   16
 
 SOLVING FOR HEAD 
                                                   Max.-Head-Change                         Max.-Flux-Residual
  Residual-Control   Outer-Iter.   Inner-Iter.     Column Row Layer    Maximum-Head-Change  Column Row Layer    Maximum-Flux-Residual          L2-NORM 
          0                 1           2             4    7     1       0.1818061759E-01       4    7    1         0.9550026243E+00      0.2270113289E+01
          0                 2           2             4    7     1      -0.1768485311E-02       4    7    1        -0.9550073257E-01      0.2270014618E+00
          0                 3           1             4    7     1       0.1204272278E-03       4    7    1         0.6685049715E-02      0.1588918414E-01
          0                 4           1             4    7     1      -0.4791915010E-05       4    7    1        -0.2734189491E-03      0.6498195200E-03

    ------------------------------------------------
       NWT REQUIRED            4 OUTER ITERATIONS 
       AND A TOTAL OF          6 INNER ITERATIONS.
    ------------------------------------------------

 NO OUTPUT CONTROL FOR STRESS PERIOD   14   TIME STEP   17
 
 SOLVING FOR HEAD 
                                                   Max.-Head-Change                         Max.-Flux-Residual
  Residual-Control   Outer-Iter.   Inner-Iter.     Column Row Layer    Maximum-Head-Change  Column Row Layer    Maximum-Flux-Residual          L2-NORM 
          0                 1           2             4    7     1       0.1798421278E-01       4    7    1         0.9446380678E+00      0.2249979618E+01
          0                 2           2             4    7     1      -0.1749380317E-02       4    7    1        -0.9446426603E-01      0.2249887484E+00
          0                 3           1             4    7     1       0.1191262497E-03       4    7    1         0.6612497130E-02      0.1574828132E-01
          0                 4           1             4    7     1      -0.4740147539E-05       4    7    1        -0.2704515196E-03      0.6440002090E-03

    ------------------------------------------------
       NWT REQUIRED            4 OUTER ITERATIONS 
       AND A TOTAL OF          6 INNER ITERATIONS.
    ------------------------------------------------

 NO OUTPUT CONTROL FOR STRESS PERIOD   14   TIME STEP   18
 
 SOLVING FOR HEAD 
                                                   Max.-Head-Change                         Max.-Flux-Residual
  Residual-Control   Outer-Iter.   Inner-Iter.     Column Row Layer    Maximum-Head-Change  Column Row Layer    Maximum-Flux-Residual          L2-NORM 
          0                 1           2             4    7     1       0.1779094903E-01       4    7    1         0.9344399885E+00      0.2230128427E+01
          0                 2           2             4    7     1      -0.1730580867E-02       4    7    1        -0.9344444748E-01      0.2230041590E+00
          0                 3           1             4    7     1       0.1178460784E-03       4    7    1         0.6541109908E-02      0.1560938807E-01
          0                 4           1             4    7     1      -0.4689208181E-05       4    7    1        -0.2675317730E-03      0.6383921558E-03

    ------------------------------------------------
       NWT REQUIRED            4 OUTER ITERATIONS 
       AND A TOTAL OF          6 INNER ITERATIONS.
    ------------------------------------------------

 NO OUTPUT CONTROL FOR STRESS PERIOD   14   TIME STEP   19
 
 SOLVING FOR HEAD 
                                                   Max.-Head-Change                         Max.-Flux-Residual
  Residual-Control   Outer-Iter.   Inner-Iter.     Column Row Layer    Maximum-Head-Change  Column Row Layer    Maximum-Flux-Residual          L2-NORM 
          0                 1           2             4    7     1       0.1760062090E-01       4    7    1         0.9243974120E+00      0.2210552367E+01
          0                 2           2             4    7     1      -0.1712066977E-02       4    7    1        -0.9244017951E-01      0.2210471784E+00
          0                 3           1             4    7     1       0.1165853529E-03       4    7    1         0.6470811229E-02      0.1547251632E-01
          0                 4           1             4    7     1      -0.4639042710E-05       4    7    1        -0.2646565572E-03      0.6327727049E-03

    ------------------------------------------------
       NWT REQUIRED            4 OUTER ITERATIONS 
       AND A TOTAL OF          6 INNER ITERATIONS.
    ------------------------------------------------

 NO OUTPUT CONTROL FOR STRESS PERIOD   14   TIME STEP   20
 
 SOLVING FOR HEAD 
                                                   Max.-Head-Change                         Max.-Flux-Residual
  Residual-Control   Outer-Iter.   Inner-Iter.     Column Row Layer    Maximum-Head-Change  Column Row Layer    Maximum-Flux-Residual          L2-NORM 
          0                 1           2             4    7     1       0.1741316731E-01       4    7    1         0.9145070429E+00      0.2191238224E+01
          0                 2           2             4    7     1      -0.1693832705E-02       4    7    1        -0.9145113255E-01      0.2191162928E+00
          0                 3           1             4    7     1       0.1153436679E-03       4    7    1         0.6401577993E-02      0.1533743397E-01
          0                 4           1             4    7     1      -0.4589635125E-05       4    7    1        -0.2618249248E-03      0.6273015020E-03

    ------------------------------------------------
       NWT REQUIRED            4 OUTER ITERATIONS 
       AND A TOTAL OF          6 INNER ITERATIONS.
    ------------------------------------------------

 NO OUTPUT CONTROL FOR STRESS PERIOD   14   TIME STEP   21
 
 SOLVING FOR HEAD 
                                                   Max.-Head-Change                         Max.-Flux-Residual
  Residual-Control   Outer-Iter.   Inner-Iter.     Column Row Layer    Maximum-Head-Change  Column Row Layer    Maximum-Flux-Residual          L2-NORM 
          0                 1           2             4    7     1       0.1722866373E-01       4    7    1         0.9047730709E+00      0.2172196122E+01
          0                 2           2             4    7     1      -0.1675885392E-02       4    7    1        -0.9047772553E-01      0.2172126092E+00
          0                 3           1             4    7     1       0.1141215242E-03       4    7    1         0.6333439570E-02      0.1520422723E-01
          0                 4           1             4    7     1      -0.4541004996E-05       4    7    1        -0.2590380748E-03      0.6218005907E-03

    ------------------------------------------------
       NWT REQUIRED            4 OUTER ITERATIONS 
       AND A TOTAL OF          6 INNER ITERATIONS.
    ------------------------------------------------

 NO OUTPUT CONTROL FOR STRESS PERIOD   14   TIME STEP   22
 
 SOLVING FOR HEAD 
                                                   Max.-Head-Change                         Max.-Flux-Residual
  Residual-Control   Outer-Iter.   Inner-Iter.     Column Row Layer    Maximum-Head-Change  Column Row Layer    Maximum-Flux-Residual          L2-NORM 
          0                 1           2             4    7     1       0.1704677489E-01       4    7    1         0.8951773379E+00      0.2153405775E+01
          0                 2           2             4    7     1      -0.1658192427E-02       4    7    1        -0.8951814270E-01      0.2153339451E+00
          0                 3           1             4    7     1       0.1129167000E-03       4    7    1         0.6266268824E-02      0.1507277346E-01
          0                 4           1             4    7     1      -0.4493063791E-05       4    7    1        -0.2562907787E-03      0.6164584848E-03

    ------------------------------------------------
       NWT REQUIRED            4 OUTER ITERATIONS 
       AND A TOTAL OF          6 INNER ITERATIONS.
    ------------------------------------------------

 NO OUTPUT CONTROL FOR STRESS PERIOD   14   TIME STEP   23
 
 SOLVING FOR HEAD 
                                                   Max.-Head-Change                         Max.-Flux-Residual
  Residual-Control   Outer-Iter.   Inner-Iter.     Column Row Layer    Maximum-Head-Change  Column Row Layer    Maximum-Flux-Residual          L2-NORM 
          0                 1           2             4    7     1       0.1686771938E-01       4    7    1         0.8857318900E+00      0.2134871991E+01
          0                 2           2             4    7     1      -0.1640775071E-02       4    7    1        -0.8857358863E-01      0.2134808623E+00
          0                 3           1             4    7     1       0.1117306439E-03       4    7    1         0.6200150098E-02      0.1494302038E-01
          0                 4           1             4    7     1      -0.4445869304E-05       4    7    1        -0.2535865140E-03      0.6111217483E-03

    ------------------------------------------------
       NWT REQUIRED            4 OUTER ITERATIONS 
       AND A TOTAL OF          6 INNER ITERATIONS.
    ------------------------------------------------

 NO OUTPUT CONTROL FOR STRESS PERIOD   14   TIME STEP   24
 
 SOLVING FOR HEAD 
                                                   Max.-Head-Change                         Max.-Flux-Residual
  Residual-Control   Outer-Iter.   Inner-Iter.     Column Row Layer    Maximum-Head-Change  Column Row Layer    Maximum-Flux-Residual          L2-NORM 
          0                 1           2             4    7     1       0.1669130253E-01       4    7    1         0.8764259880E+00      0.2116578917E+01
          0                 2           2             4    7     1      -0.1623614387E-02       4    7    1        -0.8764298938E-01      0.2116519413E+00
          0                 3           1             4    7     1       0.1105620662E-03       4    7    1         0.6135008210E-02      0.1481510074E-01
          0                 4           1             4    7     1      -0.4399370763E-05       4    7    1        -0.2509222008E-03      0.6059295214E-03

    ------------------------------------------------
       NWT REQUIRED            4 OUTER ITERATIONS 
       AND A TOTAL OF          6 INNER ITERATIONS.
    ------------------------------------------------

 NO OUTPUT CONTROL FOR STRESS PERIOD   14   TIME STEP   25
 
 SOLVING FOR HEAD 
                                                   Max.-Head-Change                         Max.-Flux-Residual
  Residual-Control   Outer-Iter.   Inner-Iter.     Column Row Layer    Maximum-Head-Change  Column Row Layer    Maximum-Flux-Residual          L2-NORM 
          0                 1           2             4    7     1       0.1651760589E-01       4    7    1         0.8672642545E+00      0.2098540723E+01
          0                 2           2             4    7     1      -0.1606718310E-02       4    7    1        -0.8672680723E-01      0.2098484054E+00
          0                 3           1             4    7     1       0.1094115074E-03       4    7    1         0.6070875529E-02      0.1468883595E-01
          0                 4           1             4    7     1      -0.4353588660E-05       4    7    1        -0.2482991679E-03      0.6007183779E-03

    ------------------------------------------------
       NWT REQUIRED            4 OUTER ITERATIONS 
       AND A TOTAL OF          6 INNER ITERATIONS.
    ------------------------------------------------

 NO OUTPUT CONTROL FOR STRESS PERIOD   14   TIME STEP   26
 
 SOLVING FOR HEAD 
                                                   Max.-Head-Change                         Max.-Flux-Residual
  Residual-Control   Outer-Iter.   Inner-Iter.     Column Row Layer    Maximum-Head-Change  Column Row Layer    Maximum-Flux-Residual          L2-NORM 
          0                 1           2             4    7     1       0.1634643549E-01       4    7    1         0.8582362016E+00      0.2080732197E+01
          0                 2           2             4    7     1      -0.1590067971E-02       4    7    1        -0.8582399334E-01      0.2080678532E+00
          0                 3           1             4    7     1       0.1082776822E-03       4    7    1         0.6007678599E-02      0.1456425146E-01
          0                 4           1             4    7     1      -0.4308472802E-05       4    7    1        -0.2457144160E-03      0.5956551194E-03

    ------------------------------------------------
       NWT REQUIRED            4 OUTER ITERATIONS 
       AND A TOTAL OF          6 INNER ITERATIONS.
    ------------------------------------------------

 NO OUTPUT CONTROL FOR STRESS PERIOD   14   TIME STEP   27
 
 SOLVING FOR HEAD 
                                                   Max.-Head-Change                         Max.-Flux-Residual
  Residual-Control   Outer-Iter.   Inner-Iter.     Column Row Layer    Maximum-Head-Change  Column Row Layer    Maximum-Flux-Residual          L2-NORM 
          0                 1           2             4    7     1       0.1617787622E-01       4    7    1         0.8493464890E+00      0.2063174410E+01
          0                 2           2             4    7     1      -0.1573671627E-02       4    7    1        -0.8493501373E-01      0.2063163584E+00
          0                 3           1             4    7     1       0.1071611531E-03       4    7    1         0.5945450078E-02      0.1444163266E-01
          0                 4           1             4    7     1      -0.4264044946E-05       4    7    1        -0.2431692626E-03      0.5906235419E-03

    ------------------------------------------------
       NWT REQUIRED            4 OUTER ITERATIONS 
       AND A TOTAL OF          6 INNER ITERATIONS.
    ------------------------------------------------

 NO OUTPUT CONTROL FOR STRESS PERIOD   14   TIME STEP   28
 
 SOLVING FOR HEAD 
                                                   Max.-Head-Change                         Max.-Flux-Residual
  Residual-Control   Outer-Iter.   Inner-Iter.     Column Row Layer    Maximum-Head-Change  Column Row Layer    Maximum-Flux-Residual          L2-NORM 
          0                 1           2             4    7     1       0.1601173790E-01       4    7    1         0.8405848010E+00      0.2045827121E+01
          0                 2           2             4    7     1      -0.1557510777E-02       4    7    1        -0.8405883677E-01      0.2045780171E+00
          0                 3           1             4    7     1       0.1060606602E-03       4    7    1         0.5884117737E-02      0.1432021168E-01
          0                 4           1             4    7     1      -0.4220255127E-05       4    7    1        -0.2406607628E-03      0.5856862207E-03

    ------------------------------------------------
       NWT REQUIRED            4 OUTER ITERATIONS 
       AND A TOTAL OF          6 INNER ITERATIONS.
    ------------------------------------------------

 NO OUTPUT CONTROL FOR STRESS PERIOD   14   TIME STEP   29
 
 SOLVING FOR HEAD 
                                                   Max.-Head-Change                         Max.-Flux-Residual
  Residual-Control   Outer-Iter.   Inner-Iter.     Column Row Layer    Maximum-Head-Change  Column Row Layer    Maximum-Flux-Residual          L2-NORM 
          0                 1           2             4    7     1       0.1584797015E-01       4    7    1         0.8319486346E+00      0.2028707339E+01
          0                 2           2             4    7     1      -0.1541580523E-02       4    7    1        -0.8319521219E-01      0.2028660352E+00
          0                 3           1             4    7     1       0.1049758705E-03       4    7    1         0.5823664081E-02      0.1420017858E-01
          0                 4           1             4    7     1      -0.4177090681E-05       4    7    1        -0.2381882116E-03      0.5807586545E-03

    ------------------------------------------------
       NWT REQUIRED            4 OUTER ITERATIONS 
       AND A TOTAL OF          6 INNER ITERATIONS.
    ------------------------------------------------

 NO OUTPUT CONTROL FOR STRESS PERIOD   14   TIME STEP   30



 STREAM LISTING     PERIOD     14   STEP       30

 LAYER ROW COL. STREAM  RCH.  FLOW INTO     FLOW TO   FLOW OUT OF   OVRLND.     DIRECT     STREAM       STREAM     STREAM     STREAM   STREAMBED  STREAMBED
                SEG.NO.  NO.  STRM. RCH.    AQUIFER    STRM. RCH.    RUNOFF     PRECIP       ET          HEAD       DEPTH      WIDTH   CONDCTNC.   GRADIENT

   1    1    1     1     1    1.9000E+01  2.1427E-01   1.8786E+01  0.000E+00  0.000E+00  0.000E+00  1.09413E+03  1.082E+00  1.166E+01  5.249E-02  1.361E+00
   1    2    2     1     2    1.8786E+01  3.3055E-01   1.8455E+01  0.000E+00  0.000E+00  0.000E+00  1.08914E+03  1.077E+00  1.158E+01  8.107E-02  1.359E+00
   1    3    3     1     3    1.8455E+01  2.8065E-01   1.8175E+01  0.000E+00  0.000E+00  0.000E+00  1.08349E+03  1.072E+00  1.149E+01  6.892E-02  1.357E+00
   1    3    4     1     4    1.8175E+01  2.5740E-01   1.7917E+01  0.000E+00  0.000E+00  0.000E+00  1.07848E+03  1.068E+00  1.140E+01  6.328E-02  1.356E+00
   1    4    5     2     1    1.5917E+01  3.0543E-01   1.5612E+01  0.000E+00  0.000E+00  0.000E+00  1.07285E+03  9.157E-01  1.200E+01  7.800E-02  1.305E+00
   1    5    6     2     2    1.5612E+01  2.3438E-01   1.5378E+01  0.000E+00  0.000E+00  0.000E+00  1.06742E+03  9.063E-01  1.200E+01  6.000E-02  1.302E+00
   1    6    6     2     3    1.5378E+01  2.3388E-01   1.5144E+01  0.000E+00  0.000E+00  0.000E+00  1.06269E+03  8.980E-01  1.200E+01  6.000E-02  1.299E+00
   1    7    6     2     4    1.5144E+01  2.3339E-01   1.4910E+01  0.000E+00  0.000E+00  0.000E+00  1.05797E+03  8.898E-01  1.200E+01  6.000E-02  1.297E+00
   1    8    6     2     5    1.4910E+01  2.3289E-01   1.4677E+01  0.000E+00  0.000E+00  0.000E+00  1.05324E+03  8.814E-01  1.200E+01  6.000E-02  1.294E+00
   1    3    5     3     1    2.0000E+00  2.8252E-01   1.7175E+00  0.000E+00  0.000E+00  0.000E+00  1.07555E+03  1.909E+00  9.636E+00  7.227E-02  1.955E+00
   1    3    6     3     2    1.7175E+00  2.4905E-01   1.4684E+00  0.000E+00  0.000E+00  0.000E+00  1.07264E+03  1.727E+00  8.909E+00  6.682E-02  1.864E+00
   1    3    7     3     3    1.4684E+00  1.9718E-01   1.2712E+00  0.000E+00  0.000E+00  0.000E+00  1.06987E+03  1.555E+00  8.218E+00  5.547E-02  1.777E+00
   1    4    8     3     4    1.2712E+00  2.2567E-01   1.0456E+00  0.000E+00  0.000E+00  0.000E+00  1.06682E+03  1.364E+00  7.455E+00  6.709E-02  1.682E+00
   1    5    8     3     5    1.0456E+00  1.5790E-01   8.8768E-01  0.000E+00  0.000E+00  0.000E+00  1.06362E+03  1.164E+00  6.655E+00  4.991E-02  1.582E+00
   1    6    8     3     6    8.8768E-01  5.5980E-02   8.3170E-01  0.000E+00  0.000E+00  0.000E+00  1.06158E+03  1.036E+00  6.145E+00  1.844E-02  1.518E+00
   1    5   10     4     1    1.0000E+01  9.0919E-02   9.9091E+00  0.000E+00  0.000E+00  0.000E+00  1.07836E+03  6.368E-01  1.000E+01  2.500E-02  1.212E+00
   1    5    9     4     2    9.9091E+00  1.8158E-01   9.7275E+00  0.000E+00  0.000E+00  0.000E+00  1.07154E+03  6.315E-01  1.000E+01  5.000E-02  1.211E+00
   1    6    8     4     3    9.7275E+00  1.2689E-01   9.6006E+00  0.000E+00  0.000E+00  0.000E+00  1.06381E+03  6.256E-01  1.000E+01  3.500E-02  1.209E+00
   1    6    8     5     1    1.0432E+01  2.2686E-01   1.0205E+01  0.000E+00  0.000E+00  0.000E+00  1.05868E+03  6.790E-01  1.542E+01  6.166E-02  1.226E+00
   1    7    7     5     2    1.0205E+01  2.7894E-01   9.9265E+00  0.000E+00  0.000E+00  0.000E+00  1.05417E+03  6.732E-01  1.519E+01  7.594E-02  1.224E+00
   1    8    7     5     3    9.9265E+00  1.9221E-01   9.7343E+00  0.000E+00  0.000E+00  0.000E+00  1.04992E+03  6.676E-01  1.497E+01  5.241E-02  1.223E+00
   1    8    6     5     4    9.7343E+00  1.3577E-01   9.5985E+00  0.000E+00  0.000E+00  0.000E+00  1.04691E+03  6.637E-01  1.482E+01  3.706E-02  1.221E+00
   1    9    6     6     1    2.4276E+01  2.5176E-01   2.4024E+01  0.000E+00  0.000E+00  0.000E+00  1.04392E+03  1.196E+00  1.200E+01  6.000E-02  1.399E+00
   1   10    7     6     2    2.4024E+01  2.5131E-01   2.3773E+01  0.000E+00  0.000E+00  0.000E+00  1.03937E+03  1.188E+00  1.200E+01  6.000E-02  1.396E+00
   1   11    7     6     3    2.3773E+01  2.5086E-01   2.3522E+01  0.000E+00  0.000E+00  0.000E+00  1.03482E+03  1.181E+00  1.200E+01  6.000E-02  1.394E+00
   1   12    7     6     4    2.3522E+01  2.5041E-01   2.3272E+01  0.000E+00  0.000E+00  0.000E+00  1.03026E+03  1.173E+00  1.200E+01  6.000E-02  1.391E+00
   1   13    7     6     5    2.3272E+01 -1.4474E-02   2.3286E+01  0.000E+00  0.000E+00  0.000E+00  1.02708E+03  1.170E+00  1.200E+01  2.400E-01 -2.010E-02
   1   14    9     7     1    1.5000E+02  1.3294E+00   1.4867E+02  0.000E+00  0.000E+00  0.000E+00  1.03987E+03  2.288E+00  5.529E+01  5.593E-01  7.923E-01
   1   13    8     7     2    1.4867E+02  1.8061E+00   1.4686E+02  0.000E+00  0.000E+00  0.000E+00  1.03478E+03  2.279E+00  5.526E+01  6.148E-01  9.792E-01
   1   13    7     7     3    1.4686E+02  1.4246E+00   1.4544E+02  0.000E+00  0.000E+00  0.000E+00  1.02969E+03  2.271E+00  5.522E+01  5.585E-01  8.503E-01
   1   13    6     8     1    1.6873E+02  8.7561E-01   1.6785E+02  0.000E+00  0.000E+00  0.000E+00  1.02482E+03  2.941E+00  4.264E+01  4.346E-01  6.716E-01
   1   13    5     8     2    1.6785E+02  1.4294E-01   1.6771E+02  0.000E+00  0.000E+00  0.000E+00  1.01856E+03  2.938E+00  4.260E+01  4.341E-01  1.098E-01
   1   13    4     8     3    1.6771E+02 -2.5245E+00   1.7023E+02  0.000E+00  0.000E+00  0.000E+00  1.01232E+03  2.945E+00  4.271E+01  4.352E+00 -1.933E-01
   1   13    3     8     4    1.7023E+02 -3.7085E+00   1.7394E+02  0.000E+00  0.000E+00  0.000E+00  1.00609E+03  2.966E+00  4.300E+01  4.382E+00 -2.821E-01
   1   13    2     8     5    1.7394E+02 -2.6052E+00   1.7655E+02  0.000E+00  0.000E+00  0.000E+00  9.99861E+02  2.986E+00  4.330E+01  4.412E+00 -1.968E-01
   1   13    1     8     6    1.7655E+02 -2.0003E+00   1.7855E+02  0.000E+00  0.000E+00  0.000E+00  9.94876E+02  3.001E+00  4.351E+01  2.660E+00 -2.506E-01





UNSATURATED ZONE PACKAGE VOLUMETRIC BUDGET FOR  TIME STEP    30 STRESS PERIOD   14
  ------------------------------------------------------------------------------



     CUMULATIVE VOLUMES      L**3       RATES FOR THIS TIME STEP      L**3/T
     ------------------                 ------------------------

           IN:                                      IN:
           ---                                      ---
        INFILTRATION =   432951391.8325          INFILTRATION =           0.8475

          OUT:                                     OUT:
          ----                                     ----
              UZF ET =   432012054.5399                UZF ET =           0.7500
        UZF RECHARGE =       73224.0000          UZF RECHARGE =       0.0000E+00

            IN - OUT =      866113.2926              IN - OUT =       9.7500E-02

          STORAGE:                                 STORAGE:
          --------                                 --------
      STORAGE CHANGE =      866111.6243        STORAGE CHANGE =       9.7500E-02

 PERCENT DISCREPANCY IS DIFFERENCE BETWEEN IN-OUT MINUS CHANGE IN STORAGE
 DIVIDED BY THE AVERAGE OF IN AND OUT TIMES 100

 PERCENT DISCREPANCY =           0.00     PERCENT DISCREPANCY =           0.00






1
  VOLUMETRIC BUDGET FOR AGRICULTURAL FIELDS AT  END OF TIME STEP   30, STRESS PERIOD  14
  ------------------------------------------------------------------------------

     CUMULATIVE VOLUMES      L**3       RATES FOR THIS TIME STEP      L**3/T
     ------------------                 ------------------------

           IN:                                      IN:
           ---                                      ---
               AG WELLS  =   403901728.0000                 AG WELLS  =           0.0000
      DIVERSION SEGMENTS =           0.0000        DIVERSION SEGMENTS =           0.0000
       IRRIGATION PONDS  =           0.0000         IRRIGATION PONDS  =           0.0000
           GW IRRIGATION =           0.0000             GW IRRIGATION =           0.0000
           SW IRRIGATION =           0.0000             SW IRRIGATION =           0.0000
        SYSTEM LOSSES GW =           0.0000          SYSTEM LOSSES GW =           0.0000
        SYSTEM LOSSES SW =           0.0000          SYSTEM LOSSES SW =           0.0000

                TOTAL IN =   403901728.0000                  TOTAL IN =           0.0000

          OUT:                                     OUT:
          ----                                     ----
               AG WELLS  =           0.0000                 AG WELLS  =           0.0000
      DIVERSION SEGMENTS =           0.0000        DIVERSION SEGMENTS =           0.0000
       IRRIGATION PONDS  =           0.0000         IRRIGATION PONDS  =           0.0000
           GW IRRIGATION =   403901728.0000             GW IRRIGATION =           0.0000
           SW IRRIGATION =           0.0000             SW IRRIGATION =           0.0000
        SYSTEM LOSSES GW =           0.0000          SYSTEM LOSSES GW =           0.0000
        SYSTEM LOSSES SW =           0.0000          SYSTEM LOSSES SW =           0.0000

               TOTAL OUT =   403901728.0000                 TOTAL OUT =           0.0000

                IN - OUT =           0.0000                  IN - OUT =           0.0000

     PERCENT DISCREPANCY =           0.00         PERCENT DISCREPANCY =           0.00



1
  VOLUMETRIC BUDGET FOR ENTIRE MODEL AT END OF TIME STEP   30, STRESS PERIOD  14
  ------------------------------------------------------------------------------

     CUMULATIVE VOLUMES      L**3       RATES FOR THIS TIME STEP      L**3/T
     ------------------                 ------------------------

           IN:                                      IN:
           ---                                      ---
             STORAGE     =   551963904.0000               STORAGE     =           6.2734
       CONSTANT HEAD     =           0.0000         CONSTANT HEAD     =           0.0000
     HEAD DEP BOUNDS     =     9783325.0000       HEAD DEP BOUNDS     =           0.2853
      STREAM LEAKAGE     =   424116928.0000        STREAM LEAKAGE     =          11.3072
        UZF RECHARGE     =       73223.9531          UZF RECHARGE     =           0.0000
               GW ET     =           0.0000                 GW ET     =           0.0000
     SURFACE LEAKAGE     =           0.0000       SURFACE LEAKAGE     =           0.0000
           AG WELLS      =           0.0000             AG WELLS      =           0.0000

                TOTAL IN =   985937344.0000                  TOTAL IN =          17.8660

          OUT:                                     OUT:
          ----                                     ----
             STORAGE     =   200649392.0000               STORAGE     =           6.7232
       CONSTANT HEAD     =           0.0000         CONSTANT HEAD     =           0.0000
     HEAD DEP BOUNDS     =    10088113.0000       HEAD DEP BOUNDS     =           0.2898
      STREAM LEAKAGE     =   357537376.0000        STREAM LEAKAGE     =          10.8530
        UZF RECHARGE     =           0.0000          UZF RECHARGE     =           0.0000
               GW ET     =    13763951.0000                 GW ET     =           0.0000
     SURFACE LEAKAGE     =           0.0000       SURFACE LEAKAGE     =           0.0000
           AG WELLS      =   403901728.0000             AG WELLS      =           0.0000

               TOTAL OUT =   985940608.0000                 TOTAL OUT =          17.8660

                IN - OUT =       -3264.0000                  IN - OUT =       7.6294E-06

     PERCENT DISCREPANCY =          -0.00         PERCENT DISCREPANCY =           0.00






         TIME SUMMARY AT END OF TIME STEP   30 IN STRESS PERIOD   14
                    SECONDS     MINUTES      HOURS       DAYS        YEARS
                    -----------------------------------------------------------
   TIME STEP LENGTH  87667.      1461.1      24.352      1.0147     2.77799E-03
 STRESS PERIOD TIME 2.63000E+06  43833.      730.56      30.440     8.33397E-02
         TOTAL TIME 3.42763E+07 5.71272E+05  9521.2      396.72      1.0862    
1
1
                            STRESS PERIOD NO.   15, LENGTH =   2630000.    
                            -----------------------------------------------

                              NUMBER OF TIME STEPS =    30

                               MULTIPLIER FOR DELT =     1.000

                            INITIAL TIME STEP SIZE =   87666.66    

 REUSING NON-PARAMETER GHB CELLS FROM LAST STRESS PERIOD

      2 GHB CELLS

 REUSING STREAM SEGMENT DATA FROM LAST STRESS PERIOD



            AREAL INFILTRATION RATE
 READING ON UNIT   19 WITH FORMAT: (FREE)              

            1           2           3           4           5           6           7           8           9          10
 ........................................................................................................................
   1   1.0000E-10  2.0000E-10   0.000       0.000       0.000       0.000       0.000       0.000       0.000       0.000    
   2   2.0000E-10  1.0000E-10  2.0000E-10   0.000       0.000      8.0000E-10  8.0000E-10  5.0000E-10   0.000       0.000    
   3    0.000      5.0000E-10  1.0000E-10  1.0000E-10  8.0000E-10  8.0000E-10  5.0000E-10  5.0000E-10   0.000       0.000    
   4   8.0000E-10  5.0000E-10  1.0000E-10  1.0000E-10  1.0000E-10  1.0000E-10  1.0000E-10  1.0000E-10  2.0000E-10   0.000    
   5   8.0000E-10  5.0000E-10  1.0000E-10  1.0000E-10  1.0000E-10  1.0000E-10  1.0000E-10  1.0000E-10  1.0000E-10  1.0000E-10
   6   8.0000E-10  5.0000E-10  5.0000E-10  2.0000E-10  2.0000E-10  1.0000E-10  1.0000E-10  1.0000E-10  1.0000E-10  5.0000E-10
   7   8.0000E-10  5.0000E-10  5.0000E-10  2.0000E-10  2.0000E-10  1.0000E-10  1.0000E-10  2.0000E-10  2.0000E-10   0.000    
   8    0.000      5.0000E-10  5.0000E-10  2.0000E-10  2.0000E-10  1.0000E-10  1.0000E-10  2.0000E-10  5.0000E-10   0.000    
   9    0.000      5.0000E-10  5.0000E-10  2.0000E-10  2.0000E-10  1.0000E-10  1.0000E-10  2.0000E-10  5.0000E-10   0.000    
  10    0.000      5.0000E-10  5.0000E-10  2.0000E-10  2.0000E-10  1.0000E-10  1.0000E-10  2.0000E-10  5.0000E-10  8.0000E-10
  11    0.000      1.0000E-10  1.0000E-10  1.0000E-10  1.0000E-10  1.0000E-10  1.0000E-10  2.0000E-10  5.0000E-10   0.000    
  12   1.0000E-10  1.0000E-10  1.0000E-10  1.0000E-10  1.0000E-10  1.0000E-10  1.0000E-10  1.0000E-10  2.0000E-10   0.000    
  13   1.0000E-10  1.0000E-10  2.0000E-10  2.0000E-10  2.0000E-10  2.0000E-10  2.0000E-10  1.0000E-10  1.0000E-10   0.000    
  14    0.000      2.0000E-10  5.0000E-10  5.0000E-10  5.0000E-10  5.0000E-10  5.0000E-10  2.0000E-10  1.0000E-10   0.000    
  15    0.000       0.000      8.0000E-10  8.0000E-10  8.0000E-10  8.0000E-10   0.000       0.000       0.000       0.000    

                  ET RATE =  5.000000E-10

 USING ET EXTINCTION DEPTH FROM PREVIOUS STRESS PERIOD. CURRENT PERIOD IS:      15

 USING EXTINCTION WATER CONTENT FROM PREVIOUS STRESS PERIOD. CURRENT PERIOD IS:      15

 USING AIR ENTRY PRESSURE FROM PREVIOUS STRESS PERIOD. CURRENT PERIOD IS:      15

 USING ROOT PRESSURE HEAD FROM PREVIOUS STRESS PERIOD. CURRENT PERIOD IS:      15

 USING ROOT ACTIVITY FROM PREVIOUS STRESS PERIOD. CURRENT PERIOD IS:      15

 PROCESSING AG STRESS PERIOD DATA

 READING AG STRESS PERIOD DATA

 READING IRRIGATION WELL

 NO IRRPOND OR REUSING IRRPOND DATA FROM LAST STRESS PERIOD

 END PROCESSING AG STRESS PERIOD DATA OPTIONS
 
 SOLVING FOR HEAD 
                                                   Max.-Head-Change                         Max.-Flux-Residual
  Residual-Control   Outer-Iter.   Inner-Iter.     Column Row Layer    Maximum-Head-Change  Column Row Layer    Maximum-Flux-Residual          L2-NORM 
          0                 1           2             4    7     1       0.1568666396E-01       4    7    1         0.8234427383E+00      0.2011817694E+01
          0                 2           2             4    7     1      -0.1525889714E-02       4    7    1        -0.8234461482E-01      0.2011772612E+00
          0                 3           1             4    7     1       0.1039073855E-03       4    7    1         0.5764122300E-02      0.1408197603E-01
          0                 4           1             4    7     1      -0.4134574864E-05       4    7    1        -0.2357529581E-03      0.5779983098E-03

    ------------------------------------------------
       NWT REQUIRED            4 OUTER ITERATIONS 
       AND A TOTAL OF          6 INNER ITERATIONS.
    ------------------------------------------------

 NO OUTPUT CONTROL FOR STRESS PERIOD   15   TIME STEP    1
 
 SOLVING FOR HEAD 
                                                   Max.-Head-Change                         Max.-Flux-Residual
  Residual-Control   Outer-Iter.   Inner-Iter.     Column Row Layer    Maximum-Head-Change  Column Row Layer    Maximum-Flux-Residual          L2-NORM 
          0                 1           2             4    7     1       0.1552777340E-01       4    7    1         0.8150644699E+00      0.1992517994E+01
          0                 2           2             4    7     1      -0.1510433884E-02       4    7    1        -0.8150678043E-01      0.1992516710E+00
          0                 3           1             4    7     1       0.1028549017E-03       4    7    1         0.5705473930E-02      0.1394759032E-01
          0                 4           1             4    7     1      -0.4092695357E-05       4    7    1        -0.2333542250E-03      0.5704617362E-03

    ------------------------------------------------
       NWT REQUIRED            4 OUTER ITERATIONS 
       AND A TOTAL OF          6 INNER ITERATIONS.
    ------------------------------------------------

 NO OUTPUT CONTROL FOR STRESS PERIOD   15   TIME STEP    2
 
 SOLVING FOR HEAD 
                                                   Max.-Head-Change                         Max.-Flux-Residual
  Residual-Control   Outer-Iter.   Inner-Iter.     Column Row Layer    Maximum-Head-Change  Column Row Layer    Maximum-Flux-Residual          L2-NORM 
          0                 1           2             4    7     1       0.1537112353E-01       4    7    1         0.8068040891E+00      0.1974963330E+01
          0                 2           2             4    7     1      -0.1495244210E-02       4    7    1        -0.8068073496E-01      0.1975547603E+00
          0                 3           1             4    7     1       0.1018205427E-03       4    7    1         0.5647650827E-02      0.1382880672E-01
          0                 4           1             4    7     1      -0.4051537125E-05       4    7    1        -0.2309892491E-03      0.5656025494E-03

    ------------------------------------------------
       NWT REQUIRED            4 OUTER ITERATIONS 
       AND A TOTAL OF          6 INNER ITERATIONS.
    ------------------------------------------------

 NO OUTPUT CONTROL FOR STRESS PERIOD   15   TIME STEP    3
 
 SOLVING FOR HEAD 
                                                   Max.-Head-Change                         Max.-Flux-Residual
  Residual-Control   Outer-Iter.   Inner-Iter.     Column Row Layer    Maximum-Head-Change  Column Row Layer    Maximum-Flux-Residual          L2-NORM 
          0                 1           2             4    7     1       0.1521665643E-01       4    7    1         0.7986646753E+00      0.1958626292E+01
          0                 2           2             4    7     1      -0.1480170480E-02       4    7    1        -0.7986678661E-01      0.1958625876E+00
          0                 3           1             4    7     1       0.1007940780E-03       4    7    1         0.5590674446E-02      0.1371037517E-01
          0                 4           1             4    7     1      -0.4010693076E-05       4    7    1        -0.2286589163E-03      0.5607580382E-03

    ------------------------------------------------
       NWT REQUIRED            4 OUTER ITERATIONS 
       AND A TOTAL OF          6 INNER ITERATIONS.
    ------------------------------------------------

 NO OUTPUT CONTROL FOR STRESS PERIOD   15   TIME STEP    4
 
 SOLVING FOR HEAD 
                                                   Max.-Head-Change                         Max.-Flux-Residual
  Residual-Control   Outer-Iter.   Inner-Iter.     Column Row Layer    Maximum-Head-Change  Column Row Layer    Maximum-Flux-Residual          L2-NORM 
          0                 1           2             4    7     1       0.1506447159E-01       4    7    1         0.7906435725E+00      0.1942492923E+01
          0                 2           2             4    7     1      -0.1465366942E-02       4    7    1        -0.7906466944E-01      0.1942469908E+00
          0                 3           1             4    7     1       0.9978601300E-04       4    7    1         0.5534526299E-02      0.1359727572E-01

    ------------------------------------------------
       NWT REQUIRED            3 OUTER ITERATIONS 
       AND A TOTAL OF          5 INNER ITERATIONS.
    ------------------------------------------------

 NO OUTPUT CONTROL FOR STRESS PERIOD   15   TIME STEP    5
 
 SOLVING FOR HEAD 
                                                   Max.-Head-Change                         Max.-Flux-Residual
  Residual-Control   Outer-Iter.   Inner-Iter.     Column Row Layer    Maximum-Head-Change  Column Row Layer    Maximum-Flux-Residual          L2-NORM 
          0                 1           2             4    7     1       0.1491429923E-01       4    7    1         0.7827280998E+00      0.1926588482E+01
          0                 2           2             4    7     1      -0.1450759166E-02       4    7    1        -0.7827311542E-01      0.1926589329E+00
          0                 3           1             4    7     1       0.9879127867E-04       4    7    1         0.5479117549E-02      0.1348611722E-01

    ------------------------------------------------
       NWT REQUIRED            3 OUTER ITERATIONS 
       AND A TOTAL OF          5 INNER ITERATIONS.
    ------------------------------------------------

 NO OUTPUT CONTROL FOR STRESS PERIOD   15   TIME STEP    6
 
 SOLVING FOR HEAD 
                                                   Max.-Head-Change                         Max.-Flux-Residual
  Residual-Control   Outer-Iter.   Inner-Iter.     Column Row Layer    Maximum-Head-Change  Column Row Layer    Maximum-Flux-Residual          L2-NORM 
          0                 1           2             4    7     1       0.1476628435E-01       4    7    1         0.7749271419E+00      0.1910891611E+01
          0                 2           2             4    7     1      -0.1436361256E-02       4    7    1        -0.7749301303E-01      0.1910892720E+00
          0                 3           1             4    7     1       0.9781083527E-04       4    7    1         0.5424510427E-02      0.1337624007E-01

    ------------------------------------------------
       NWT REQUIRED            3 OUTER ITERATIONS 
       AND A TOTAL OF          5 INNER ITERATIONS.
    ------------------------------------------------

 NO OUTPUT CONTROL FOR STRESS PERIOD   15   TIME STEP    7
 
 SOLVING FOR HEAD 
                                                   Max.-Head-Change                         Max.-Flux-Residual
  Residual-Control   Outer-Iter.   Inner-Iter.     Column Row Layer    Maximum-Head-Change  Column Row Layer    Maximum-Flux-Residual          L2-NORM 
          0                 1           2             4    7     1       0.1462038779E-01       4    7    1         0.7672380451E+00      0.1895399775E+01
          0                 2           2             4    7     1      -0.1422169404E-02       4    7    1        -0.7672409693E-01      0.1895400976E+00
          0                 3           1             4    7     1       0.9684442375E-04       4    7    1         0.5370686334E-02      0.1326780105E-01

    ------------------------------------------------
       NWT REQUIRED            3 OUTER ITERATIONS 
       AND A TOTAL OF          5 INNER ITERATIONS.
    ------------------------------------------------

 NO OUTPUT CONTROL FOR STRESS PERIOD   15   TIME STEP    8
 
 SOLVING FOR HEAD 
                                                   Max.-Head-Change                         Max.-Flux-Residual
  Residual-Control   Outer-Iter.   Inner-Iter.     Column Row Layer    Maximum-Head-Change  Column Row Layer    Maximum-Flux-Residual          L2-NORM 
          0                 1           2             4    7     1       0.1447657396E-01       4    7    1         0.7596587795E+00      0.1880128165E+01
          0                 2           2             4    7     1      -0.1408180147E-02       4    7    1        -0.7596616409E-01      0.1880129177E+00
          0                 3           1             4    7     1       0.9589180803E-04       4    7    1         0.5317631068E-02      0.1316089340E-01

    ------------------------------------------------
       NWT REQUIRED            3 OUTER ITERATIONS 
       AND A TOTAL OF          5 INNER ITERATIONS.
    ------------------------------------------------

 NO OUTPUT CONTROL FOR STRESS PERIOD   15   TIME STEP    9
 
 SOLVING FOR HEAD 
                                                   Max.-Head-Change                         Max.-Flux-Residual
  Residual-Control   Outer-Iter.   Inner-Iter.     Column Row Layer    Maximum-Head-Change  Column Row Layer    Maximum-Flux-Residual          L2-NORM 
          0                 1           2             4    7     1       0.1433479782E-01       4    7    1         0.7521875003E+00      0.1865032399E+01
          0                 2           2             4    7     1      -0.1394389103E-02       4    7    1        -0.7521903006E-01      0.1865032980E+00
          0                 3           1             4    7     1       0.9495268967E-04       4    7    1         0.5265331727E-02      0.1305521655E-01

    ------------------------------------------------
       NWT REQUIRED            3 OUTER ITERATIONS 
       AND A TOTAL OF          5 INNER ITERATIONS.
    ------------------------------------------------

 NO OUTPUT CONTROL FOR STRESS PERIOD   15   TIME STEP   10
 
 SOLVING FOR HEAD 
                                                   Max.-Head-Change                         Max.-Flux-Residual
  Residual-Control   Outer-Iter.   Inner-Iter.     Column Row Layer    Maximum-Head-Change  Column Row Layer    Maximum-Flux-Residual          L2-NORM 
          0                 1           2             4    7     1       0.1419488790E-01       4    7    1         0.7448145095E+00      0.1850142828E+01
          0                 2           2             4    7     1      -0.1380779593E-02       4    7    1        -0.7448172498E-01      0.1850142910E+00
          0                 3           1             4    7     1       0.9402593335E-04       4    7    1         0.5213720399E-02      0.1295097934E-01

    ------------------------------------------------
       NWT REQUIRED            3 OUTER ITERATIONS 
       AND A TOTAL OF          5 INNER ITERATIONS.
    ------------------------------------------------

 NO OUTPUT CONTROL FOR STRESS PERIOD   15   TIME STEP   11
 
 SOLVING FOR HEAD 
                                                   Max.-Head-Change                         Max.-Flux-Residual
  Residual-Control   Outer-Iter.   Inner-Iter.     Column Row Layer    Maximum-Head-Change  Column Row Layer    Maximum-Flux-Residual          L2-NORM 
          0                 1           2             4    7     1       0.1405708432E-01       4    7    1         0.7375530028E+00      0.1835436705E+01
          0                 2           2             4    7     1      -0.1367374977E-02       4    7    1        -0.7375556848E-01      0.1835436312E+00
          0                 3           1             4    7     1       0.9311312986E-04       4    7    1         0.5162889496E-02      0.1284804376E-01

    ------------------------------------------------
       NWT REQUIRED            3 OUTER ITERATIONS 
       AND A TOTAL OF          5 INNER ITERATIONS.
    ------------------------------------------------

 NO OUTPUT CONTROL FOR STRESS PERIOD   15   TIME STEP   12
 
 SOLVING FOR HEAD 
                                                   Max.-Head-Change                         Max.-Flux-Residual
  Residual-Control   Outer-Iter.   Inner-Iter.     Column Row Layer    Maximum-Head-Change  Column Row Layer    Maximum-Flux-Residual          L2-NORM 
          0                 1           2             4    7     1       0.1392106988E-01       4    7    1         0.7303859822E+00      0.1820920546E+01
          0                 2           2             4    7     1      -0.1354144396E-02       4    7    1        -0.7303886072E-01      0.1820919514E+00
          0                 3           1             4    7     1       0.9221217743E-04       4    7    1         0.5112720000E-02      0.1274641113E-01

    ------------------------------------------------
       NWT REQUIRED            3 OUTER ITERATIONS 
       AND A TOTAL OF          5 INNER ITERATIONS.
    ------------------------------------------------

 NO OUTPUT CONTROL FOR STRESS PERIOD   15   TIME STEP   13
 
 SOLVING FOR HEAD 
                                                   Max.-Head-Change                         Max.-Flux-Residual
  Residual-Control   Outer-Iter.   Inner-Iter.     Column Row Layer    Maximum-Head-Change  Column Row Layer    Maximum-Flux-Residual          L2-NORM 
          0                 1           2             4    7     1       0.1378708981E-01       4    7    1         0.7233264498E+00      0.1806592984E+01
          0                 2           2             4    7     1      -0.1341111705E-02       4    7    1        -0.7233290192E-01      0.1806591253E+00
          0                 3           1             4    7     1       0.9132469976E-04       4    7    1         0.5063302880E-02      0.1264606738E-01

    ------------------------------------------------
       NWT REQUIRED            3 OUTER ITERATIONS 
       AND A TOTAL OF          5 INNER ITERATIONS.
    ------------------------------------------------

 NO OUTPUT CONTROL FOR STRESS PERIOD   15   TIME STEP   14
 
 SOLVING FOR HEAD 
                                                   Max.-Head-Change                         Max.-Flux-Residual
  Residual-Control   Outer-Iter.   Inner-Iter.     Column Row Layer    Maximum-Head-Change  Column Row Layer    Maximum-Flux-Residual          L2-NORM 
          0                 1           2             4    7     1       0.1365482546E-01       4    7    1         0.7163576707E+00      0.1792434948E+01
          0                 2           2             4    7     1      -0.1328245910E-02       4    7    1        -0.7163601861E-01      0.1792432314E+00
          0                 3           1             4    7     1       0.9044858797E-04       4    7    1         0.5014521101E-02      0.1254697456E-01

    ------------------------------------------------
       NWT REQUIRED            3 OUTER ITERATIONS 
       AND A TOTAL OF          5 INNER ITERATIONS.
    ------------------------------------------------

 NO OUTPUT CONTROL FOR STRESS PERIOD   15   TIME STEP   15
 
 SOLVING FOR HEAD 
                                                   Max.-Head-Change                         Max.-Flux-Residual
  Residual-Control   Outer-Iter.   Inner-Iter.     Column Row Layer    Maximum-Head-Change  Column Row Layer    Maximum-Flux-Residual          L2-NORM 
          0                 1           2             4    7     1       0.1352438757E-01       4    7    1         0.7094852114E+00      0.1778450806E+01
          0                 2           2             4    7     1      -0.1315557782E-02       4    7    1        -0.7094876735E-01      0.1778447816E+00
          0                 3           1             4    7     1       0.8958457397E-04       4    7    1         0.4966413525E-02      0.1244909988E-01

    ------------------------------------------------
       NWT REQUIRED            3 OUTER ITERATIONS 
       AND A TOTAL OF          5 INNER ITERATIONS.
    ------------------------------------------------

 NO OUTPUT CONTROL FOR STRESS PERIOD   15   TIME STEP   16
 
 SOLVING FOR HEAD 
                                                   Max.-Head-Change                         Max.-Flux-Residual
  Residual-Control   Outer-Iter.   Inner-Iter.     Column Row Layer    Maximum-Head-Change  Column Row Layer    Maximum-Flux-Residual          L2-NORM 
          0                 1           2             4    7     1       0.1339587053E-01       4    7    1         0.7027148146E+00      0.1764643352E+01
          0                 2           2             4    7     1      -0.1303056501E-02       4    7    1        -0.7027172250E-01      0.1764639685E+00
          0                 3           1             4    7     1       0.8873328400E-04       4    7    1         0.4919020424E-02      0.1235243145E-01

    ------------------------------------------------
       NWT REQUIRED            3 OUTER ITERATIONS 
       AND A TOTAL OF          5 INNER ITERATIONS.
    ------------------------------------------------

 NO OUTPUT CONTROL FOR STRESS PERIOD   15   TIME STEP   17
 
 SOLVING FOR HEAD 
                                                   Max.-Head-Change                         Max.-Flux-Residual
  Residual-Control   Outer-Iter.   Inner-Iter.     Column Row Layer    Maximum-Head-Change  Column Row Layer    Maximum-Flux-Residual          L2-NORM 
          0                 1           2             4    7     1       0.1326910621E-01       4    7    1         0.6960366466E+00      0.1751004174E+01
          0                 2           2             4    7     1      -0.1290725715E-02       4    7    1        -0.6960390066E-01      0.1750999859E+00
          0                 3           1             4    7     1       0.8789360403E-04       4    7    1         0.4872272938E-02      0.1225695461E-01

    ------------------------------------------------
       NWT REQUIRED            3 OUTER ITERATIONS 
       AND A TOTAL OF          5 INNER ITERATIONS.
    ------------------------------------------------

 NO OUTPUT CONTROL FOR STRESS PERIOD   15   TIME STEP   18
 
 SOLVING FOR HEAD 
                                                   Max.-Head-Change                         Max.-Flux-Residual
  Residual-Control   Outer-Iter.   Inner-Iter.     Column Row Layer    Maximum-Head-Change  Column Row Layer    Maximum-Flux-Residual          L2-NORM 
          0                 1           2             4    7     1       0.1314392449E-01       4    7    1         0.6894419910E+00      0.1737527047E+01
          0                 2           2             4    7     1      -0.1278548873E-02       4    7    1        -0.6894443017E-01      0.1737521875E+00
          0                 3           1             4    7     1       0.8706440680E-04       4    7    1         0.4826110018E-02      0.1216259407E-01

    ------------------------------------------------
       NWT REQUIRED            3 OUTER ITERATIONS 
       AND A TOTAL OF          5 INNER ITERATIONS.
    ------------------------------------------------

 NO OUTPUT CONTROL FOR STRESS PERIOD   15   TIME STEP   19
 
 SOLVING FOR HEAD 
                                                   Max.-Head-Change                         Max.-Flux-Residual
  Residual-Control   Outer-Iter.   Inner-Iter.     Column Row Layer    Maximum-Head-Change  Column Row Layer    Maximum-Flux-Residual          L2-NORM 
          0                 1           2             4    7     1       0.1302056870E-01       4    7    1         0.6829441175E+00      0.1724215825E+01
          0                 2           2             4    7     1      -0.1268598347E-02       4    7    1        -0.6842485766E-01      0.1724562334E+00
          0                 3           1             4    7     1       0.8638681158E-04       4    7    1         0.4789739809E-02      0.1207188171E-01

    ------------------------------------------------
       NWT REQUIRED            3 OUTER ITERATIONS 
       AND A TOTAL OF          5 INNER ITERATIONS.
    ------------------------------------------------

 NO OUTPUT CONTROL FOR STRESS PERIOD   15   TIME STEP   20
 
 SOLVING FOR HEAD 
                                                   Max.-Head-Change                         Max.-Flux-Residual
  Residual-Control   Outer-Iter.   Inner-Iter.     Column Row Layer    Maximum-Head-Change  Column Row Layer    Maximum-Flux-Residual          L2-NORM 
          0                 1           2             4    7     1       0.1289437309E-01       4    7    1         0.6764242894E+00      0.1711033824E+01
          0                 2           2             4    7     1      -0.1254274377E-02       4    7    1        -0.6764266392E-01      0.1711027604E+00
          0                 3           1             4    7     1       0.8541140316E-04       4    7    1         0.4734986303E-02      0.1197713037E-01

    ------------------------------------------------
       NWT REQUIRED            3 OUTER ITERATIONS 
       AND A TOTAL OF          5 INNER ITERATIONS.
    ------------------------------------------------

 NO OUTPUT CONTROL FOR STRESS PERIOD   15   TIME STEP   21
 
 SOLVING FOR HEAD 
                                                   Max.-Head-Change                         Max.-Flux-Residual
  Residual-Control   Outer-Iter.   Inner-Iter.     Column Row Layer    Maximum-Head-Change  Column Row Layer    Maximum-Flux-Residual          L2-NORM 
          0                 1           2             4    7     1       0.1277210045E-01       4    7    1         0.6699756956E+00      0.1698004332E+01
          0                 2           2             4    7     1      -0.1242380504E-02       4    7    1        -0.6699779914E-01      0.1697997668E+00
          0                 3           1             4    7     1       0.8460147551E-04       4    7    1         0.4689845803E-02      0.1188593550E-01

    ------------------------------------------------
       NWT REQUIRED            3 OUTER ITERATIONS 
       AND A TOTAL OF          5 INNER ITERATIONS.
    ------------------------------------------------

 NO OUTPUT CONTROL FOR STRESS PERIOD   15   TIME STEP   22
 
 SOLVING FOR HEAD 
                                                   Max.-Head-Change                         Max.-Flux-Residual
  Residual-Control   Outer-Iter.   Inner-Iter.     Column Row Layer    Maximum-Head-Change  Column Row Layer    Maximum-Flux-Residual          L2-NORM 
          0                 1           2             4    7     1       0.1265160032E-01       4    7    1         0.6636212907E+00      0.1685122751E+01
          0                 2           2             4    7     1      -0.1230659049E-02       4    7    1        -0.6636235337E-01      0.1685115285E+00
          0                 3           1             4    7     1       0.8380328851E-04       4    7    1         0.4645364632E-02      0.1179573090E-01

    ------------------------------------------------
       NWT REQUIRED            3 OUTER ITERATIONS 
       AND A TOTAL OF          5 INNER ITERATIONS.
    ------------------------------------------------

 NO OUTPUT CONTROL FOR STRESS PERIOD   15   TIME STEP   23
 
 SOLVING FOR HEAD 
                                                   Max.-Head-Change                         Max.-Flux-Residual
  Residual-Control   Outer-Iter.   Inner-Iter.     Column Row Layer    Maximum-Head-Change  Column Row Layer    Maximum-Flux-Residual          L2-NORM 
          0                 1           2             4    7     1       0.1253297085E-01       4    7    1         0.6573661516E+00      0.1672418769E+01
          0                 2           2             4    7     1      -0.1219119561E-02       4    7    1        -0.6573683436E-01      0.1672410786E+00
          0                 3           1             4    7     1       0.8301749278E-04       4    7    1         0.4601578333E-02      0.1170678293E-01

    ------------------------------------------------
       NWT REQUIRED            3 OUTER ITERATIONS 
       AND A TOTAL OF          5 INNER ITERATIONS.
    ------------------------------------------------

 NO OUTPUT CONTROL FOR STRESS PERIOD   15   TIME STEP   24
 
 SOLVING FOR HEAD 
                                                   Max.-Head-Change                         Max.-Flux-Residual
  Residual-Control   Outer-Iter.   Inner-Iter.     Column Row Layer    Maximum-Head-Change  Column Row Layer    Maximum-Flux-Residual          L2-NORM 
          0                 1           2             4    7     1       0.1241602884E-01       4    7    1         0.6512006386E+00      0.1659849839E+01
          0                 2           2             4    7     1      -0.1207744218E-02       4    7    1        -0.6512027812E-01      0.1659841221E+00
          0                 3           1             4    7     1       0.8224287500E-04       4    7    1         0.4558419415E-02      0.1161879975E-01

    ------------------------------------------------
       NWT REQUIRED            3 OUTER ITERATIONS 
       AND A TOTAL OF          5 INNER ITERATIONS.
    ------------------------------------------------

 NO OUTPUT CONTROL FOR STRESS PERIOD   15   TIME STEP   25
 
 SOLVING FOR HEAD 
                                                   Max.-Head-Change                         Max.-Flux-Residual
  Residual-Control   Outer-Iter.   Inner-Iter.     Column Row Layer    Maximum-Head-Change  Column Row Layer    Maximum-Flux-Residual          L2-NORM 
          0                 1           2             4    7     1       0.1230073261E-01       4    7    1         0.6451226168E+00      0.1647429660E+01
          0                 2           2             4    7     1      -0.1196528969E-02       4    7    1        -0.6451247111E-01      0.1647420521E+00
          0                 3           1             4    7     1       0.8147915852E-04       4    7    1         0.4515872949E-02      0.1153184325E-01

    ------------------------------------------------
       NWT REQUIRED            3 OUTER ITERATIONS 
       AND A TOTAL OF          5 INNER ITERATIONS.
    ------------------------------------------------

 NO OUTPUT CONTROL FOR STRESS PERIOD   15   TIME STEP   26
 
 SOLVING FOR HEAD 
                                                   Max.-Head-Change                         Max.-Flux-Residual
  Residual-Control   Outer-Iter.   Inner-Iter.     Column Row Layer    Maximum-Head-Change  Column Row Layer    Maximum-Flux-Residual          L2-NORM 
          0                 1           2             4    7     1       0.1218704724E-01       4    7    1         0.6391299266E+00      0.1635158765E+01
          0                 2           2             4    7     1      -0.1185470412E-02       4    7    1        -0.6391319742E-01      0.1635149239E+00
          0                 3           1             4    7     1       0.8072611221E-04       4    7    1         0.4473923804E-02      0.1144593685E-01

    ------------------------------------------------
       NWT REQUIRED            3 OUTER ITERATIONS 
       AND A TOTAL OF          5 INNER ITERATIONS.
    ------------------------------------------------

 NO OUTPUT CONTROL FOR STRESS PERIOD   15   TIME STEP   27
 
 SOLVING FOR HEAD 
                                                   Max.-Head-Change                         Max.-Flux-Residual
  Residual-Control   Outer-Iter.   Inner-Iter.     Column Row Layer    Maximum-Head-Change  Column Row Layer    Maximum-Flux-Residual          L2-NORM 
          0                 1           2             4    7     1       0.1207493770E-01       4    7    1         0.6332207559E+00      0.1623029432E+01
          0                 2           2             4    7     1      -0.1174565144E-02       4    7    1        -0.6332227579E-01      0.1623019434E+00
          0                 3           1             4    7     1       0.7998350462E-04       4    7    1         0.4432559324E-02      0.1136104604E-01

    ------------------------------------------------
       NWT REQUIRED            3 OUTER ITERATIONS 
       AND A TOTAL OF          5 INNER ITERATIONS.
    ------------------------------------------------

 NO OUTPUT CONTROL FOR STRESS PERIOD   15   TIME STEP   28
 
 SOLVING FOR HEAD 
                                                   Max.-Head-Change                         Max.-Flux-Residual
  Residual-Control   Outer-Iter.   Inner-Iter.     Column Row Layer    Maximum-Head-Change  Column Row Layer    Maximum-Flux-Residual          L2-NORM 
          0                 1           2             4    7     1       0.1196462391E-01       4    7    1         0.6274006552E+00      0.1720215833E+01
          0                 2           2             4    7     1      -0.1163834552E-02       4    7    1        -0.6274026119E-01      0.1714300195E+00
          0                 3           1             4    7     1       0.7925279128E-04       4    7    1         0.4391818308E-02      0.1194613947E-01

    ------------------------------------------------
       NWT REQUIRED            3 OUTER ITERATIONS 
       AND A TOTAL OF          5 INNER ITERATIONS.
    ------------------------------------------------

 NO OUTPUT CONTROL FOR STRESS PERIOD   15   TIME STEP   29
 
 SOLVING FOR HEAD 
                                                   Max.-Head-Change                         Max.-Flux-Residual
  Residual-Control   Outer-Iter.   Inner-Iter.     Column Row Layer    Maximum-Head-Change  Column Row Layer    Maximum-Flux-Residual          L2-NORM 
          0                 1           2             4   13     1       0.2955879788E-01       4   13    1         0.1712284208E+01      0.3431919034E+01
          0                 2           2             4   13     1      -0.2842934366E-02       4   13    1        -0.1693342152E+00      0.3346175932E+00
          0                 3           2             4   13     1       0.1905695377E-03       4   13    1         0.1167108265E-01      0.2262936329E-01
          0                 4           1             4   13     1      -0.7395822145E-05       4   13    1        -0.4657546688E-03      0.8763010454E-03

    ------------------------------------------------
       NWT REQUIRED            4 OUTER ITERATIONS 
       AND A TOTAL OF          7 INNER ITERATIONS.
    ------------------------------------------------

 NO OUTPUT CONTROL FOR STRESS PERIOD   15   TIME STEP   30



 STREAM LISTING     PERIOD     15   STEP       30

 LAYER ROW COL. STREAM  RCH.  FLOW INTO     FLOW TO   FLOW OUT OF   OVRLND.     DIRECT     STREAM       STREAM     STREAM     STREAM   STREAMBED  STREAMBED
                SEG.NO.  NO.  STRM. RCH.    AQUIFER    STRM. RCH.    RUNOFF     PRECIP       ET          HEAD       DEPTH      WIDTH   CONDCTNC.   GRADIENT

   1    1    1     1     1    9.8001E+01  4.7086E-01   9.7531E+01  0.000E+00  0.000E+00  0.000E+00  1.09484E+03  1.792E+00  2.184E+01  9.826E-02  1.597E+00
   1    2    2     1     2    9.7531E+01  7.3063E-01   9.6800E+01  0.000E+00  0.000E+00  0.000E+00  1.08985E+03  1.790E+00  2.179E+01  1.525E-01  1.597E+00
   1    3    3     1     3    9.6800E+01  6.2448E-01   9.6176E+01  0.000E+00  0.000E+00  0.000E+00  1.08421E+03  1.787E+00  2.174E+01  1.304E-01  1.596E+00
   1    3    4     1     4    9.6176E+01  5.7618E-01   9.5599E+01  0.000E+00  0.000E+00  0.000E+00  1.07919E+03  1.785E+00  2.170E+01  1.204E-01  1.595E+00
   1    4    5     2     1    9.3599E+01  4.4168E-01   9.3158E+01  0.000E+00  0.000E+00  0.000E+00  1.07460E+03  2.663E+00  1.200E+01  7.800E-02  1.888E+00
   1    5    6     2     2    9.3158E+01  3.3935E-01   9.2818E+01  0.000E+00  0.000E+00  0.000E+00  1.06917E+03  2.656E+00  1.200E+01  6.000E-02  1.885E+00
   1    6    6     2     3    9.2818E+01  3.3900E-01   9.2479E+01  0.000E+00  0.000E+00  0.000E+00  1.06444E+03  2.650E+00  1.200E+01  6.000E-02  1.883E+00
   1    7    6     2     4    9.2479E+01  3.3865E-01   9.2141E+01  0.000E+00  0.000E+00  0.000E+00  1.05972E+03  2.644E+00  1.200E+01  6.000E-02  1.881E+00
   1    8    6     2     5    9.2141E+01  3.3830E-01   9.1802E+01  0.000E+00  0.000E+00  0.000E+00  1.05500E+03  2.638E+00  1.200E+01  6.000E-02  1.879E+00
   1    3    5     3     1    2.0000E+00  2.8252E-01   1.7175E+00  0.000E+00  0.000E+00  0.000E+00  1.07555E+03  1.909E+00  9.636E+00  7.227E-02  1.955E+00
   1    3    6     3     2    1.7175E+00  2.4905E-01   1.4684E+00  0.000E+00  0.000E+00  0.000E+00  1.07264E+03  1.727E+00  8.909E+00  6.682E-02  1.864E+00
   1    3    7     3     3    1.4684E+00  1.9718E-01   1.2712E+00  0.000E+00  0.000E+00  0.000E+00  1.06987E+03  1.555E+00  8.218E+00  5.547E-02  1.777E+00
   1    4    8     3     4    1.2712E+00  2.2567E-01   1.0456E+00  0.000E+00  0.000E+00  0.000E+00  1.06682E+03  1.364E+00  7.455E+00  6.709E-02  1.682E+00
   1    5    8     3     5    1.0456E+00  1.5790E-01   8.8768E-01  0.000E+00  0.000E+00  0.000E+00  1.06362E+03  1.164E+00  6.655E+00  4.991E-02  1.582E+00
   1    6    8     3     6    8.8768E-01  5.5980E-02   8.3170E-01  0.000E+00  0.000E+00  0.000E+00  1.06158E+03  1.036E+00  6.145E+00  1.844E-02  1.518E+00
   1    5   10     4     1    1.0000E+01  9.0919E-02   9.9091E+00  0.000E+00  0.000E+00  0.000E+00  1.07836E+03  6.368E-01  1.000E+01  2.500E-02  1.212E+00
   1    5    9     4     2    9.9091E+00  1.8158E-01   9.7275E+00  0.000E+00  0.000E+00  0.000E+00  1.07154E+03  6.315E-01  1.000E+01  5.000E-02  1.211E+00
   1    6    8     4     3    9.7275E+00  1.2689E-01   9.6006E+00  0.000E+00  0.000E+00  0.000E+00  1.06381E+03  6.256E-01  1.000E+01  3.500E-02  1.209E+00
   1    6    8     5     1    1.0432E+01  2.2686E-01   1.0205E+01  0.000E+00  0.000E+00  0.000E+00  1.05868E+03  6.790E-01  1.542E+01  6.166E-02  1.226E+00
   1    7    7     5     2    1.0205E+01  2.7894E-01   9.9265E+00  0.000E+00  0.000E+00  0.000E+00  1.05417E+03  6.732E-01  1.519E+01  7.594E-02  1.224E+00
   1    8    7     5     3    9.9265E+00  1.9221E-01   9.7343E+00  0.000E+00  0.000E+00  0.000E+00  1.04992E+03  6.676E-01  1.497E+01  5.241E-02  1.223E+00
   1    8    6     5     4    9.7343E+00  1.3577E-01   9.5985E+00  0.000E+00  0.000E+00  0.000E+00  1.04691E+03  6.637E-01  1.482E+01  3.706E-02  1.221E+00
   1    9    6     6     1    1.0140E+02  3.4955E-01   1.0105E+02  0.000E+00  0.000E+00  0.000E+00  1.04555E+03  2.826E+00  1.200E+01  6.000E-02  1.942E+00
   1   10    7     6     2    1.0105E+02  3.4920E-01   1.0070E+02  0.000E+00  0.000E+00  0.000E+00  1.04100E+03  2.820E+00  1.200E+01  6.000E-02  1.940E+00
   1   11    7     6     3    1.0070E+02  3.4885E-01   1.0035E+02  0.000E+00  0.000E+00  0.000E+00  1.03645E+03  2.814E+00  1.200E+01  6.000E-02  1.938E+00
   1   12    7     6     4    1.0035E+02  3.4850E-01   1.0000E+02  0.000E+00  0.000E+00  0.000E+00  1.03190E+03  2.808E+00  1.200E+01  6.000E-02  1.936E+00
   1   13    7     6     5    1.0000E+02  3.8390E-02   9.9966E+01  0.000E+00  0.000E+00  0.000E+00  1.02871E+03  2.805E+00  1.200E+01  2.400E-02  5.332E-01
   1   14    9     7     1    1.5000E+02  1.3295E+00   1.4867E+02  0.000E+00  0.000E+00  0.000E+00  1.03987E+03  2.288E+00  5.529E+01  5.593E-01  7.924E-01
   1   13    8     7     2    1.4867E+02  1.8124E+00   1.4686E+02  0.000E+00  0.000E+00  0.000E+00  1.03478E+03  2.279E+00  5.526E+01  6.148E-01  9.827E-01
   1   13    7     7     3    1.4686E+02  1.4384E+00   1.4542E+02  0.000E+00  0.000E+00  0.000E+00  1.02969E+03  2.271E+00  5.522E+01  5.585E-01  8.585E-01
   1   13    6     8     1    2.4539E+02  1.2443E+00   2.4414E+02  0.000E+00  0.000E+00  0.000E+00  1.02526E+03  3.385E+00  4.908E+01  5.001E-01  8.294E-01
   1   13    5     8     2    2.4414E+02  3.9949E-01   2.4374E+02  0.000E+00  0.000E+00  0.000E+00  1.01901E+03  3.380E+00  4.901E+01  4.995E-01  2.666E-01
   1   13    4     8     3    2.4374E+02 -8.5894E-01   2.4460E+02  0.000E+00  0.000E+00  0.000E+00  1.01276E+03  3.382E+00  4.903E+01  4.997E+00 -5.730E-02
   1   13    3     8     4    2.4460E+02 -2.2600E+00   2.4686E+02  0.000E+00  0.000E+00  0.000E+00  1.00651E+03  3.390E+00  4.915E+01  5.008E+00 -1.504E-01
   1   13    2     8     5    2.4686E+02 -1.0740E+00   2.4794E+02  0.000E+00  0.000E+00  0.000E+00  1.00027E+03  3.398E+00  4.927E+01  5.021E+00 -7.130E-02
   1   13    1     8     6    2.4794E+02 -1.1113E+00   2.4905E+02  0.000E+00  0.000E+00  0.000E+00  9.95279E+02  3.404E+00  4.936E+01  3.018E+00 -1.228E-01





UNSATURATED ZONE PACKAGE VOLUMETRIC BUDGET FOR  TIME STEP    30 STRESS PERIOD   15
  ------------------------------------------------------------------------------



     CUMULATIVE VOLUMES      L**3       RATES FOR THIS TIME STEP      L**3/T
     ------------------                 ------------------------

           IN:                                      IN:
           ---                                      ---
        INFILTRATION =   435180316.7052          INFILTRATION =           0.8475

          OUT:                                     OUT:
          ----                                     ----
              UZF ET =   433984554.4403                UZF ET =           0.7500
        UZF RECHARGE =       73224.0000          UZF RECHARGE =       0.0000E+00

            IN - OUT =     1122538.2649              IN - OUT =       9.7500E-02

          STORAGE:                                 STORAGE:
          --------                                 --------
      STORAGE CHANGE =     1122536.6189        STORAGE CHANGE =       9.7500E-02

 PERCENT DISCREPANCY IS DIFFERENCE BETWEEN IN-OUT MINUS CHANGE IN STORAGE
 DIVIDED BY THE AVERAGE OF IN AND OUT TIMES 100

 PERCENT DISCREPANCY =           0.00     PERCENT DISCREPANCY =           0.00






1
  VOLUMETRIC BUDGET FOR AGRICULTURAL FIELDS AT  END OF TIME STEP   30, STRESS PERIOD  15
  ------------------------------------------------------------------------------

     CUMULATIVE VOLUMES      L**3       RATES FOR THIS TIME STEP      L**3/T
     ------------------                 ------------------------

           IN:                                      IN:
           ---                                      ---
               AG WELLS  =   403901728.0000                 AG WELLS  =           0.0000
      DIVERSION SEGMENTS =           0.0000        DIVERSION SEGMENTS =           0.0000
       IRRIGATION PONDS  =           0.0000         IRRIGATION PONDS  =           0.0000
           GW IRRIGATION =           0.0000             GW IRRIGATION =           0.0000
           SW IRRIGATION =           0.0000             SW IRRIGATION =           0.0000
        SYSTEM LOSSES GW =           0.0000          SYSTEM LOSSES GW =           0.0000
        SYSTEM LOSSES SW =           0.0000          SYSTEM LOSSES SW =           0.0000

                TOTAL IN =   403901728.0000                  TOTAL IN =           0.0000

          OUT:                                     OUT:
          ----                                     ----
               AG WELLS  =           0.0000                 AG WELLS  =           0.0000
      DIVERSION SEGMENTS =           0.0000        DIVERSION SEGMENTS =           0.0000
       IRRIGATION PONDS  =           0.0000         IRRIGATION PONDS  =           0.0000
           GW IRRIGATION =   403901728.0000             GW IRRIGATION =           0.0000
           SW IRRIGATION =           0.0000             SW IRRIGATION =           0.0000
        SYSTEM LOSSES GW =           0.0000          SYSTEM LOSSES GW =           0.0000
        SYSTEM LOSSES SW =           0.0000          SYSTEM LOSSES SW =           0.0000

               TOTAL OUT =   403901728.0000                 TOTAL OUT =           0.0000

                IN - OUT =           0.0000                  IN - OUT =           0.0000

     PERCENT DISCREPANCY =           0.00         PERCENT DISCREPANCY =           0.00



1
  VOLUMETRIC BUDGET FOR ENTIRE MODEL AT END OF TIME STEP   30, STRESS PERIOD  15
  ------------------------------------------------------------------------------

     CUMULATIVE VOLUMES      L**3       RATES FOR THIS TIME STEP      L**3/T
     ------------------                 ------------------------

           IN:                                      IN:
           ---                                      ---
             STORAGE     =   566249472.0000               STORAGE     =           4.0256
       CONSTANT HEAD     =           0.0000         CONSTANT HEAD     =           0.0000
     HEAD DEP BOUNDS     =    10533742.0000       HEAD DEP BOUNDS     =           0.2853
      STREAM LEAKAGE     =   454515840.0000        STREAM LEAKAGE     =          14.2592
        UZF RECHARGE     =       73223.9531          UZF RECHARGE     =           0.0000
               GW ET     =           0.0000                 GW ET     =           0.0000
     SURFACE LEAKAGE     =           0.0000       SURFACE LEAKAGE     =           0.0000
           AG WELLS      =           0.0000             AG WELLS      =           0.0000

                TOTAL IN =  1031372288.0000                  TOTAL IN =          18.5701

          OUT:                                     OUT:
          ----                                     ----
             STORAGE     =   217717168.0000               STORAGE     =          12.9752
       CONSTANT HEAD     =           0.0000         CONSTANT HEAD     =           0.0000
     HEAD DEP BOUNDS     =    10850534.0000       HEAD DEP BOUNDS     =           0.2906
      STREAM LEAKAGE     =   385142560.0000        STREAM LEAKAGE     =           5.3043
        UZF RECHARGE     =           0.0000          UZF RECHARGE     =           0.0000
               GW ET     =    13763951.0000                 GW ET     =           0.0000
     SURFACE LEAKAGE     =           0.0000       SURFACE LEAKAGE     =           0.0000
           AG WELLS      =   403901728.0000             AG WELLS      =           0.0000

               TOTAL OUT =  1031376000.0000                 TOTAL OUT =          18.5701

                IN - OUT =       -3712.0000                  IN - OUT =       3.4332E-05

     PERCENT DISCREPANCY =          -0.00         PERCENT DISCREPANCY =           0.00






         TIME SUMMARY AT END OF TIME STEP   30 IN STRESS PERIOD   15
                    SECONDS     MINUTES      HOURS       DAYS        YEARS
                    -----------------------------------------------------------
   TIME STEP LENGTH  87667.      1461.1      24.352      1.0147     2.77799E-03
 STRESS PERIOD TIME 2.63000E+06  43833.      730.56      30.440     8.33397E-02
         TOTAL TIME 3.69063E+07 6.15106E+05  10252.      427.16      1.1695    
1
1
                            STRESS PERIOD NO.   16, LENGTH =   2630000.    
                            -----------------------------------------------

                              NUMBER OF TIME STEPS =    30

                               MULTIPLIER FOR DELT =     1.000

                            INITIAL TIME STEP SIZE =   87666.66    

 REUSING NON-PARAMETER GHB CELLS FROM LAST STRESS PERIOD

      2 GHB CELLS

 REUSING STREAM SEGMENT DATA FROM LAST STRESS PERIOD



            AREAL INFILTRATION RATE
 READING ON UNIT   19 WITH FORMAT: (FREE)              

            1           2           3           4           5           6           7           8           9          10
 ........................................................................................................................
   1   1.0000E-10  2.0000E-10   0.000       0.000       0.000       0.000       0.000       0.000       0.000       0.000    
   2   2.0000E-10  1.0000E-10  2.0000E-10   0.000       0.000      8.0000E-10  8.0000E-10  5.0000E-10   0.000       0.000    
   3    0.000      5.0000E-10  1.0000E-10  1.0000E-10  8.0000E-10  8.0000E-10  5.0000E-10  5.0000E-10   0.000       0.000    
   4   8.0000E-10  5.0000E-10  1.0000E-10  1.0000E-10  1.0000E-10  1.0000E-10  1.0000E-10  1.0000E-10  2.0000E-10   0.000    
   5   8.0000E-10  5.0000E-10  1.0000E-10  1.0000E-10  1.0000E-10  1.0000E-10  1.0000E-10  1.0000E-10  1.0000E-10  1.0000E-10
   6   8.0000E-10  5.0000E-10  5.0000E-10  2.0000E-10  2.0000E-10  1.0000E-10  1.0000E-10  1.0000E-10  1.0000E-10  5.0000E-10
   7   8.0000E-10  5.0000E-10  5.0000E-10  2.0000E-10  2.0000E-10  1.0000E-10  1.0000E-10  2.0000E-10  2.0000E-10   0.000    
   8    0.000      5.0000E-10  5.0000E-10  2.0000E-10  2.0000E-10  1.0000E-10  1.0000E-10  2.0000E-10  5.0000E-10   0.000    
   9    0.000      5.0000E-10  5.0000E-10  2.0000E-10  2.0000E-10  1.0000E-10  1.0000E-10  2.0000E-10  5.0000E-10   0.000    
  10    0.000      5.0000E-10  5.0000E-10  2.0000E-10  2.0000E-10  1.0000E-10  1.0000E-10  2.0000E-10  5.0000E-10  8.0000E-10
  11    0.000      1.0000E-10  1.0000E-10  1.0000E-10  1.0000E-10  1.0000E-10  1.0000E-10  2.0000E-10  5.0000E-10   0.000    
  12   1.0000E-10  1.0000E-10  1.0000E-10  1.0000E-10  1.0000E-10  1.0000E-10  1.0000E-10  1.0000E-10  2.0000E-10   0.000    
  13   1.0000E-10  1.0000E-10  2.0000E-10  2.0000E-10  2.0000E-10  2.0000E-10  2.0000E-10  1.0000E-10  1.0000E-10   0.000    
  14    0.000      2.0000E-10  5.0000E-10  5.0000E-10  5.0000E-10  5.0000E-10  5.0000E-10  2.0000E-10  1.0000E-10   0.000    
  15    0.000       0.000      8.0000E-10  8.0000E-10  8.0000E-10  8.0000E-10   0.000       0.000       0.000       0.000    

                  ET RATE =  5.000000E-10

 USING ET EXTINCTION DEPTH FROM PREVIOUS STRESS PERIOD. CURRENT PERIOD IS:      16

 USING EXTINCTION WATER CONTENT FROM PREVIOUS STRESS PERIOD. CURRENT PERIOD IS:      16

 USING AIR ENTRY PRESSURE FROM PREVIOUS STRESS PERIOD. CURRENT PERIOD IS:      16

 USING ROOT PRESSURE HEAD FROM PREVIOUS STRESS PERIOD. CURRENT PERIOD IS:      16

 USING ROOT ACTIVITY FROM PREVIOUS STRESS PERIOD. CURRENT PERIOD IS:      16

 PROCESSING AG STRESS PERIOD DATA

 READING AG STRESS PERIOD DATA

 READING IRRIGATION WELL

 NO IRRPOND OR REUSING IRRPOND DATA FROM LAST STRESS PERIOD

 END PROCESSING AG STRESS PERIOD DATA OPTIONS
 
 SOLVING FOR HEAD 
                                                   Max.-Head-Change                         Max.-Flux-Residual
  Residual-Control   Outer-Iter.   Inner-Iter.     Column Row Layer    Maximum-Head-Change  Column Row Layer    Maximum-Flux-Residual          L2-NORM 
          0                 1           2             4   13     1       0.2653877845E-01       4   13    1         0.1536573746E+01      0.3207014665E+01
          0                 2           2             4   13     1      -0.2552485176E-02       4   13    1        -0.1519573651E+00      0.3130674154E+00
          0                 3           2             4   13     1       0.1711095225E-03       4   13    1         0.1047393169E-01      0.2120818749E-01
          0                 4           1             4   13     1      -0.6647490210E-05       4   13    1        -0.4184238805E-03      0.8235714910E-03

    ------------------------------------------------
       NWT REQUIRED            4 OUTER ITERATIONS 
       AND A TOTAL OF          7 INNER ITERATIONS.
    ------------------------------------------------

 NO OUTPUT CONTROL FOR STRESS PERIOD   16   TIME STEP    1
 
 SOLVING FOR HEAD 
                                                   Max.-Head-Change                         Max.-Flux-Residual
  Residual-Control   Outer-Iter.   Inner-Iter.     Column Row Layer    Maximum-Head-Change  Column Row Layer    Maximum-Flux-Residual          L2-NORM 
          0                 1           2             2   13     1       0.2423576090E-01       4   13    1         0.1379576569E+01      0.3006862711E+01
          0                 2           2             4   13     1      -0.2292903982E-02       4   13    1        -0.1364308445E+00      0.2939684742E+00
          0                 3           2             4   13     1       0.1536955726E-03       4   13    1         0.9402890330E-02      0.1994984562E-01
          0                 4           1             4   13     1      -0.5960428263E-05       4   13    1        -0.3749592388E-03      0.7764842812E-03

    ------------------------------------------------
       NWT REQUIRED            4 OUTER ITERATIONS 
       AND A TOTAL OF          7 INNER ITERATIONS.
    ------------------------------------------------

 NO OUTPUT CONTROL FOR STRESS PERIOD   16   TIME STEP    2
 
 SOLVING FOR HEAD 
                                                   Max.-Head-Change                         Max.-Flux-Residual
  Residual-Control   Outer-Iter.   Inner-Iter.     Column Row Layer    Maximum-Head-Change  Column Row Layer    Maximum-Flux-Residual          L2-NORM 
          0                 1           2             2   13     1       0.2225623556E-01       2   13    1         0.1263488720E+01      0.2828906736E+01
          0                 2           2             4   13     1      -0.2060767785E-02       4   13    1        -0.1225529514E+00      0.2768798363E+00
          0                 3           2             4   13     1       0.1381310602E-03       4   13    1         0.8446087854E-02      0.1882575665E-01
          0                 4           1             4   13     1      -0.5352332567E-05       4   13    1        -0.3365132607E-03      0.7354625984E-03

    ------------------------------------------------
       NWT REQUIRED            4 OUTER ITERATIONS 
       AND A TOTAL OF          7 INNER ITERATIONS.
    ------------------------------------------------

 NO OUTPUT CONTROL FOR STRESS PERIOD   16   TIME STEP    3
 
 SOLVING FOR HEAD 
                                                   Max.-Head-Change                         Max.-Flux-Residual
  Residual-Control   Outer-Iter.   Inner-Iter.     Column Row Layer    Maximum-Head-Change  Column Row Layer    Maximum-Flux-Residual          L2-NORM 
          0                 1           2             2   13     1       0.2043884202E-01       2   13    1         0.1160210409E+01      0.2670832692E+01
          0                 2           2             2   13     1      -0.1892448903E-02       2   13    1        -0.1104269778E+00      0.2618485627E+00
          0                 3           2             4   13     1       0.1244121791E-03       4   13    1         0.7604813229E-02      0.1783757636E-01
          0                 4           1             4   13     1      -0.4820174576E-05       4   13    1        -0.3029583804E-03      0.6985312185E-03

    ------------------------------------------------
       NWT REQUIRED            4 OUTER ITERATIONS 
       AND A TOTAL OF          7 INNER ITERATIONS.
    ------------------------------------------------

 NO OUTPUT CONTROL FOR STRESS PERIOD   16   TIME STEP    4
 
 SOLVING FOR HEAD 
                                                   Max.-Head-Change                         Max.-Flux-Residual
  Residual-Control   Outer-Iter.   Inner-Iter.     Column Row Layer    Maximum-Head-Change  Column Row Layer    Maximum-Flux-Residual          L2-NORM 
          0                 1           2             2   13     1       0.1877046461E-01       2   13    1         0.1065401642E+01      0.2530561893E+01
          0                 2           2             2   13     1      -0.1739223638E-02       2   13    1        -0.1014755738E+00      0.2483656224E+00
          0                 3           1             4   13     1       0.1117187291E-03       4   13    1         0.6824669050E-02      0.1695265406E-01
          0                 4           1             4   13     1      -0.4333060028E-05       4   13    1        -0.2721564369E-03      0.6667551715E-03

    ------------------------------------------------
       NWT REQUIRED            4 OUTER ITERATIONS 
       AND A TOTAL OF          6 INNER ITERATIONS.
    ------------------------------------------------

 NO OUTPUT CONTROL FOR STRESS PERIOD   16   TIME STEP    5
 
 SOLVING FOR HEAD 
                                                   Max.-Head-Change                         Max.-Flux-Residual
  Residual-Control   Outer-Iter.   Inner-Iter.     Column Row Layer    Maximum-Head-Change  Column Row Layer    Maximum-Flux-Residual          L2-NORM 
          0                 1           2             2   13     1       0.1723900205E-01       2   13    1         0.9783750434E+00      0.2406226884E+01
          0                 2           2             2   13     1      -0.1598398319E-02       2   13    1        -0.9324878955E-01      0.2364936912E+00
          0                 3           1             2   13     1       0.1015900855E-03       4   13    1         0.6137742246E-02      0.1617270022E-01
          0                 4           1             4   13     1      -0.3895853985E-05       4   13    1        -0.2445517475E-03      0.6372031721E-03

    ------------------------------------------------
       NWT REQUIRED            4 OUTER ITERATIONS 
       AND A TOTAL OF          6 INNER ITERATIONS.
    ------------------------------------------------

 NO OUTPUT CONTROL FOR STRESS PERIOD   16   TIME STEP    6
 
 SOLVING FOR HEAD 
                                                   Max.-Head-Change                         Max.-Flux-Residual
  Residual-Control   Outer-Iter.   Inner-Iter.     Column Row Layer    Maximum-Head-Change  Column Row Layer    Maximum-Flux-Residual          L2-NORM 
          0                 1           2             2   13     1       0.1583331196E-01       2   13    1         0.8984977870E+00      0.2296112280E+01
          0                 2           2             2   13     1      -0.1468955911E-02       2   13    1        -0.8568723451E-01      0.2259839112E+00
          0                 3           1             2   13     1       0.9345140732E-04       2   13    1         0.5602488053E-02      0.1548424263E-01

    ------------------------------------------------
       NWT REQUIRED            3 OUTER ITERATIONS 
       AND A TOTAL OF          5 INNER ITERATIONS.
    ------------------------------------------------

 NO OUTPUT CONTROL FOR STRESS PERIOD   16   TIME STEP    7
 
 SOLVING FOR HEAD 
                                                   Max.-Head-Change                         Max.-Flux-Residual
  Residual-Control   Outer-Iter.   Inner-Iter.     Column Row Layer    Maximum-Head-Change  Column Row Layer    Maximum-Flux-Residual          L2-NORM 
          0                 1           2             2   13     1       0.1454289641E-01       2   13    1         0.8251734160E+00      0.2198593811E+01
          0                 2           2             2   13     1      -0.1350055399E-02       2   13    1        -0.7874180551E-01      0.2166816092E+00
          0                 3           1             2   13     1       0.8596821383E-04       2   13    1         0.5153200932E-02      0.1487488235E-01

    ------------------------------------------------
       NWT REQUIRED            3 OUTER ITERATIONS 
       AND A TOTAL OF          5 INNER ITERATIONS.
    ------------------------------------------------

 NO OUTPUT CONTROL FOR STRESS PERIOD   16   TIME STEP    8
 
 SOLVING FOR HEAD 
                                                   Max.-Head-Change                         Max.-Flux-Residual
  Residual-Control   Outer-Iter.   Inner-Iter.     Column Row Layer    Maximum-Head-Change  Column Row Layer    Maximum-Flux-Residual          L2-NORM 
          0                 1           2             2   13     1       0.1335857164E-01       2   13    1         0.7578800960E+00      0.2112246571E+01
          0                 2           2             2   13     1      -0.1240782504E-02       2   13    1        -0.7235903977E-01      0.2084455688E+00
          0                 3           1             2   13     1       0.7908313086E-04       2   13    1         0.4739841493E-02      0.1433557668E-01

    ------------------------------------------------
       NWT REQUIRED            3 OUTER ITERATIONS 
       AND A TOTAL OF          5 INNER ITERATIONS.
    ------------------------------------------------

 NO OUTPUT CONTROL FOR STRESS PERIOD   16   TIME STEP    9
 
 SOLVING FOR HEAD 
                                                   Max.-Head-Change                         Max.-Flux-Residual
  Residual-Control   Outer-Iter.   Inner-Iter.     Column Row Layer    Maximum-Head-Change  Column Row Layer    Maximum-Flux-Residual          L2-NORM 
          0                 1           2             2   13     1       0.1227175002E-01       2   13    1         0.6961298287E+00      0.2035767718E+01
          0                 2           2             2   13     1      -0.1140398773E-02       2   13    1        -0.6649582130E-01      0.2011500906E+00
          0                 3           1             2   13     1       0.7272751546E-04       2   13    1         0.4358285155E-02      0.1385698091E-01

    ------------------------------------------------
       NWT REQUIRED            3 OUTER ITERATIONS 
       AND A TOTAL OF          5 INNER ITERATIONS.
    ------------------------------------------------

 NO OUTPUT CONTROL FOR STRESS PERIOD   16   TIME STEP   10
 
 SOLVING FOR HEAD 
                                                   Max.-Head-Change                         Max.-Flux-Residual
  Residual-Control   Outer-Iter.   Inner-Iter.     Column Row Layer    Maximum-Head-Change  Column Row Layer    Maximum-Flux-Residual          L2-NORM 
          0                 1           2             2   13     1       0.1127450735E-01       2   13    1         0.6394722890E+00      0.1967967989E+01
          0                 2           2             4    7     1      -0.1048526987E-02       2   13    1        -0.6111707006E-01      0.1946835015E+00
          0                 3           1             4    7     1       0.7140077823E-04       2   13    1         0.4010255822E-02      0.1343384948E-01

    ------------------------------------------------
       NWT REQUIRED            3 OUTER ITERATIONS 
       AND A TOTAL OF          5 INNER ITERATIONS.
    ------------------------------------------------

 NO OUTPUT CONTROL FOR STRESS PERIOD   16   TIME STEP   11
 
 SOLVING FOR HEAD 
                                                   Max.-Head-Change                         Max.-Flux-Residual
  Residual-Control   Outer-Iter.   Inner-Iter.     Column Row Layer    Maximum-Head-Change  Column Row Layer    Maximum-Flux-Residual          L2-NORM 
          0                 1           2             4    7     1       0.1069050324E-01       2   13    1         0.5874718318E+00      0.1907793733E+01
          0                 2           2             4    7     1      -0.1039896611E-02       2   13    1        -0.5616753296E-01      0.1889397393E+00
          0                 3           1             4    7     1       0.7081308217E-04       4    7    1         0.3920568822E-02      0.1305702259E-01

    ------------------------------------------------
       NWT REQUIRED            3 OUTER ITERATIONS 
       AND A TOTAL OF          5 INNER ITERATIONS.
    ------------------------------------------------

 NO OUTPUT CONTROL FOR STRESS PERIOD   16   TIME STEP   12
 
 SOLVING FOR HEAD 
                                                   Max.-Head-Change                         Max.-Flux-Residual
  Residual-Control   Outer-Iter.   Inner-Iter.     Column Row Layer    Maximum-Head-Change  Column Row Layer    Maximum-Flux-Residual          L2-NORM 
          0                 1           2             4    7     1       0.1060303098E-01       4    7    1         0.5554648527E+00      0.1854293045E+01
          0                 2           2             4    7     1      -0.1031387899E-02       4    7    1        -0.5554662762E-01      0.1838300079E+00
          0                 3           1             4    7     1       0.7023367097E-04       4    7    1         0.3888264260E-02      0.1272156951E-01

    ------------------------------------------------
       NWT REQUIRED            3 OUTER ITERATIONS 
       AND A TOTAL OF          5 INNER ITERATIONS.
    ------------------------------------------------

 NO OUTPUT CONTROL FOR STRESS PERIOD   16   TIME STEP   13
 
 SOLVING FOR HEAD 
                                                   Max.-Head-Change                         Max.-Flux-Residual
  Residual-Control   Outer-Iter.   Inner-Iter.     Column Row Layer    Maximum-Head-Change  Column Row Layer    Maximum-Flux-Residual          L2-NORM 
          0                 1           2             4    7     1       0.1051691193E-01       4    7    1         0.5509221609E+00      0.1806643095E+01
          0                 2           2             4    7     1      -0.1023010820E-02       4    7    1        -0.5509235546E-01      0.1792765789E+00
          0                 3           1             4    7     1       0.6966322389E-04       4    7    1         0.3856465237E-02      0.1242172092E-01

    ------------------------------------------------
       NWT REQUIRED            3 OUTER ITERATIONS 
       AND A TOTAL OF          5 INNER ITERATIONS.
    ------------------------------------------------

 NO OUTPUT CONTROL FOR STRESS PERIOD   16   TIME STEP   14
 
 SOLVING FOR HEAD 
                                                   Max.-Head-Change                         Max.-Flux-Residual
  Residual-Control   Outer-Iter.   Inner-Iter.     Column Row Layer    Maximum-Head-Change  Column Row Layer    Maximum-Flux-Residual          L2-NORM 
          0                 1           2             4    7     1       0.1043210732E-01       4    7    1         0.5464496308E+00      0.1764087822E+01
          0                 2           2             4    7     1      -0.1014761602E-02       4    7    1        -0.5464509956E-01      0.1752048862E+00
          0                 3           1             4    7     1       0.6910148331E-04       4    7    1         0.3825157327E-02      0.1215422887E-01

    ------------------------------------------------
       NWT REQUIRED            3 OUTER ITERATIONS 
       AND A TOTAL OF          5 INNER ITERATIONS.
    ------------------------------------------------

 NO OUTPUT CONTROL FOR STRESS PERIOD   16   TIME STEP   15
 
 SOLVING FOR HEAD 
                                                   Max.-Head-Change                         Max.-Flux-Residual
  Residual-Control   Outer-Iter.   Inner-Iter.     Column Row Layer    Maximum-Head-Change  Column Row Layer    Maximum-Flux-Residual          L2-NORM 
          0                 1           2             4    7     1       0.1034843938E-01       4    7    1         0.5420378842E+00      0.1725959256E+01
          0                 2           2             4    7     1      -0.1006622951E-02       4    7    1        -0.5420392211E-01      0.1715528577E+00
          0                 3           1             4    7     1       0.6854727202E-04       4    7    1         0.3794274930E-02      0.1191223003E-01

    ------------------------------------------------
       NWT REQUIRED            3 OUTER ITERATIONS 
       AND A TOTAL OF          5 INNER ITERATIONS.
    ------------------------------------------------

 NO OUTPUT CONTROL FOR STRESS PERIOD   16   TIME STEP   16
 
 SOLVING FOR HEAD 
                                                   Max.-Head-Change                         Max.-Flux-Residual
  Residual-Control   Outer-Iter.   Inner-Iter.     Column Row Layer    Maximum-Head-Change  Column Row Layer    Maximum-Flux-Residual          L2-NORM 
          0                 1           2             4    7     1       0.1026615516E-01       4    7    1         0.5376998087E+00      0.1691701809E+01
          0                 2           2             4    7     1      -0.9986188994E-03       4    7    1        -0.5377011182E-01      0.1682666930E+00
          0                 3           1             4    7     1       0.6800222578E-04       4    7    1         0.3763908200E-02      0.1169628261E-01

    ------------------------------------------------
       NWT REQUIRED            3 OUTER ITERATIONS 
       AND A TOTAL OF          5 INNER ITERATIONS.
    ------------------------------------------------

 NO OUTPUT CONTROL FOR STRESS PERIOD   16   TIME STEP   17
 
 SOLVING FOR HEAD 
                                                   Max.-Head-Change                         Max.-Flux-Residual
  Residual-Control   Outer-Iter.   Inner-Iter.     Column Row Layer    Maximum-Head-Change  Column Row Layer    Maximum-Flux-Residual          L2-NORM 
          0                 1           2             4    7     1       0.1018493933E-01       4    7    1         0.5334187397E+00      0.1660801077E+01
          0                 2           2             4    7     1      -0.9907187752E-03       4    7    1        -0.5334200227E-01      0.1652973539E+00
          0                 3           1             4    7     1       0.6746425726E-04       4    7    1         0.3733940556E-02      0.1149981415E-01

    ------------------------------------------------
       NWT REQUIRED            3 OUTER ITERATIONS 
       AND A TOTAL OF          5 INNER ITERATIONS.
    ------------------------------------------------

 NO OUTPUT CONTROL FOR STRESS PERIOD   16   TIME STEP   18
 
 SOLVING FOR HEAD 
                                                   Max.-Head-Change                         Max.-Flux-Residual
  Residual-Control   Outer-Iter.   Inner-Iter.     Column Row Layer    Maximum-Head-Change  Column Row Layer    Maximum-Flux-Residual          L2-NORM 
          0                 1           2             4    7     1       0.1010476642E-01       4    7    1         0.5291930646E+00      0.1632828803E+01
          0                 2           2             4    7     1      -0.9829200987E-03       4    7    1        -0.5291943217E-01      0.1626048339E+00
          0                 3           1             4    7     1       0.6693319723E-04       4    7    1         0.3704360662E-02      0.1132029918E-01

    ------------------------------------------------
       NWT REQUIRED            3 OUTER ITERATIONS 
       AND A TOTAL OF          5 INNER ITERATIONS.
    ------------------------------------------------

 NO OUTPUT CONTROL FOR STRESS PERIOD   16   TIME STEP   19
 
 SOLVING FOR HEAD 
                                                   Max.-Head-Change                         Max.-Flux-Residual
  Residual-Control   Outer-Iter.   Inner-Iter.     Column Row Layer    Maximum-Head-Change  Column Row Layer    Maximum-Flux-Residual          L2-NORM 
          0                 1           2             4    7     1       0.1002588350E-01       4    7    1         0.5250362014E+00      0.1607406750E+01
          0                 2           2             4    7     1      -0.9752469048E-03       4    7    1        -0.5250374339E-01      0.1601534936E+00
          0                 3           1             4    7     1       0.6641068146E-04       4    7    1         0.3675262463E-02      0.1115744414E-01

    ------------------------------------------------
       NWT REQUIRED            3 OUTER ITERATIONS 
       AND A TOTAL OF          5 INNER ITERATIONS.
    ------------------------------------------------

 NO OUTPUT CONTROL FOR STRESS PERIOD   16   TIME STEP   20
 
 SOLVING FOR HEAD 
                                                   Max.-Head-Change                         Max.-Flux-Residual
  Residual-Control   Outer-Iter.   Inner-Iter.     Column Row Layer    Maximum-Head-Change  Column Row Layer    Maximum-Flux-Residual          L2-NORM 
          0                 1           2             4    7     1       0.9947982312E-02       4    7    1         0.5209314833E+00      0.1584196944E+01
          0                 2           2             4    7     1      -0.9676692071E-03       4    7    1        -0.5209326912E-01      0.1579110897E+00
          0                 3           1             4    7     1       0.6589466888E-04       4    7    1         0.3646529274E-02      0.1100723129E-01

    ------------------------------------------------
       NWT REQUIRED            3 OUTER ITERATIONS 
       AND A TOTAL OF          5 INNER ITERATIONS.
    ------------------------------------------------

 NO OUTPUT CONTROL FOR STRESS PERIOD   16   TIME STEP   21
 
 SOLVING FOR HEAD 
                                                   Max.-Head-Change                         Max.-Flux-Residual
  Residual-Control   Outer-Iter.   Inner-Iter.     Column Row Layer    Maximum-Head-Change  Column Row Layer    Maximum-Flux-Residual          L2-NORM 
          0                 1           2             4    7     1       0.9871174908E-02       4    7    1         0.5168850361E+00      0.1562918204E+01
          0                 2           2             4    7     1      -0.9601979064E-03       4    7    1        -0.5168862204E-01      0.1558515974E+00
          0                 3           1             4    7     1       0.6538590146E-04       4    7    1         0.3618203995E-02      0.1086927003E-01

    ------------------------------------------------
       NWT REQUIRED            3 OUTER ITERATIONS 
       AND A TOTAL OF          5 INNER ITERATIONS.
    ------------------------------------------------

 NO OUTPUT CONTROL FOR STRESS PERIOD   16   TIME STEP   22
 
 SOLVING FOR HEAD 
                                                   Max.-Head-Change                         Max.-Flux-Residual
  Residual-Control   Outer-Iter.   Inner-Iter.     Column Row Layer    Maximum-Head-Change  Column Row Layer    Maximum-Flux-Residual          L2-NORM 
          0                 1           2             4    7     1       0.9795564814E-02       4    7    1         0.5129026694E+00      0.1543316959E+01
          0                 2           2             4    7     1      -0.9528430718E-03       4    7    1        -0.5129038308E-01      0.1539508742E+00
          0                 3           1             4    7     1       0.6488506460E-04       4    7    1         0.3590327268E-02      0.1073792081E-01

    ------------------------------------------------
       NWT REQUIRED            3 OUTER ITERATIONS 
       AND A TOTAL OF          5 INNER ITERATIONS.
    ------------------------------------------------

 NO OUTPUT CONTROL FOR STRESS PERIOD   16   TIME STEP   23
 
 SOLVING FOR HEAD 
                                                   Max.-Head-Change                         Max.-Flux-Residual
  Residual-Control   Outer-Iter.   Inner-Iter.     Column Row Layer    Maximum-Head-Change  Column Row Layer    Maximum-Flux-Residual          L2-NORM 
          0                 1           2             4    7     1       0.9720716161E-02       4    7    1         0.5089602719E+00      0.1525186974E+01
          0                 2           2             4    7     1      -0.9455623058E-03       4    7    1        -0.5089614108E-01      0.1522360134E+00
          0                 3           1             4    7     1       0.6438927220E-04       4    7    1         0.3562730342E-02      0.1062617426E-01

    ------------------------------------------------
       NWT REQUIRED            3 OUTER ITERATIONS 
       AND A TOTAL OF          5 INNER ITERATIONS.
    ------------------------------------------------

 NO OUTPUT CONTROL FOR STRESS PERIOD   16   TIME STEP   24
 
 SOLVING FOR HEAD 
                                                   Max.-Head-Change                         Max.-Flux-Residual
  Residual-Control   Outer-Iter.   Inner-Iter.     Column Row Layer    Maximum-Head-Change  Column Row Layer    Maximum-Flux-Residual          L2-NORM 
          0                 1           2             4    7     1       0.9647018909E-02       4    7    1         0.5050794635E+00      0.1508305786E+01
          0                 2           2             4    7     1      -0.9383935401E-03       4    7    1        -0.5050805805E-01      0.1505427476E+00
          0                 3           1             4    7     1       0.6390110601E-04       4    7    1         0.3535564535E-02      0.1051174919E-01

    ------------------------------------------------
       NWT REQUIRED            3 OUTER ITERATIONS 
       AND A TOTAL OF          5 INNER ITERATIONS.
    ------------------------------------------------

 NO OUTPUT CONTROL FOR STRESS PERIOD   16   TIME STEP   25
 
 SOLVING FOR HEAD 
                                                   Max.-Head-Change                         Max.-Flux-Residual
  Residual-Control   Outer-Iter.   Inner-Iter.     Column Row Layer    Maximum-Head-Change  Column Row Layer    Maximum-Flux-Residual          L2-NORM 
          0                 1           2             4    7     1       0.9574304234E-02       4    7    1         0.5012509835E+00      0.1492551448E+01
          0                 2           2             4    7     1      -0.9313203536E-03       4    7    1        -0.5012520793E-01      0.1490052342E+00
          0                 3           1             4    7     1       0.6341944856E-04       4    7    1         0.3508765032E-02      0.1040734838E-01

    ------------------------------------------------
       NWT REQUIRED            3 OUTER ITERATIONS 
       AND A TOTAL OF          5 INNER ITERATIONS.
    ------------------------------------------------

 NO OUTPUT CONTROL FOR STRESS PERIOD   16   TIME STEP   26
 
 SOLVING FOR HEAD 
                                                   Max.-Head-Change                         Max.-Flux-Residual
  Residual-Control   Outer-Iter.   Inner-Iter.     Column Row Layer    Maximum-Head-Change  Column Row Layer    Maximum-Flux-Residual          L2-NORM 
          0                 1           2             4    7     1       0.9502547151E-02       4    7    1         0.4974734484E+00      0.1477791924E+01
          0                 2           2             4    7     1      -0.9243403157E-03       4    7    1        -0.4974745237E-01      0.1475615149E+00
          0                 3           1             4    7     1       0.6294413408E-04       4    7    1         0.3482322147E-02      0.1030959367E-01

    ------------------------------------------------
       NWT REQUIRED            3 OUTER ITERATIONS 
       AND A TOTAL OF          5 INNER ITERATIONS.
    ------------------------------------------------

 NO OUTPUT CONTROL FOR STRESS PERIOD   16   TIME STEP   27
 
 SOLVING FOR HEAD 
                                                   Max.-Head-Change                         Max.-Flux-Residual
  Residual-Control   Outer-Iter.   Inner-Iter.     Column Row Layer    Maximum-Head-Change  Column Row Layer    Maximum-Flux-Residual          L2-NORM 
          0                 1           2             4    7     1       0.9431593582E-02       4    7    1         0.4937381924E+00      0.1463922457E+01
          0                 2           2             4    7     1      -0.9174384384E-03       4    7    1        -0.4937392477E-01      0.1462033316E+00
          0                 3           1             4    7     1       0.6247414203E-04       4    7    1         0.3456175220E-02      0.1021634800E-01

    ------------------------------------------------
       NWT REQUIRED            3 OUTER ITERATIONS 
       AND A TOTAL OF          5 INNER ITERATIONS.
    ------------------------------------------------

 NO OUTPUT CONTROL FOR STRESS PERIOD   16   TIME STEP   28
 
 SOLVING FOR HEAD 
                                                   Max.-Head-Change                         Max.-Flux-Residual
  Residual-Control   Outer-Iter.   Inner-Iter.     Column Row Layer    Maximum-Head-Change  Column Row Layer    Maximum-Flux-Residual          L2-NORM 
          0                 1           2             4    7     1       0.9361695260E-02       4    7    1         0.4900593385E+00      0.1450819440E+01
          0                 2           2             4    7     1      -0.9106392086E-03       4    7    1        -0.4900603740E-01      0.1449168214E+00
          0                 3           1             4    7     1       0.6201114047E-04       4    7    1         0.3430423121E-02      0.1012373124E-01

    ------------------------------------------------
       NWT REQUIRED            3 OUTER ITERATIONS 
       AND A TOTAL OF          5 INNER ITERATIONS.
    ------------------------------------------------

 NO OUTPUT CONTROL FOR STRESS PERIOD   16   TIME STEP   29
 
 SOLVING FOR HEAD 
                                                   Max.-Head-Change                         Max.-Flux-Residual
  Residual-Control   Outer-Iter.   Inner-Iter.     Column Row Layer    Maximum-Head-Change  Column Row Layer    Maximum-Flux-Residual          L2-NORM 
          0                 1           2             4    7     1       0.9292513180E-02       4    7    1         0.4864204560E+00      0.1398815992E+01
          0                 2           2             4    7     1      -0.9039096512E-03       4    7    1        -0.4864214728E-01      0.1398594407E+00
          0                 3           1             4    7     1       0.6155288315E-04       4    7    1         0.3404950826E-02      0.9788134474E-02

    ------------------------------------------------
       NWT REQUIRED            3 OUTER ITERATIONS 
       AND A TOTAL OF          5 INNER ITERATIONS.
    ------------------------------------------------

 NO OUTPUT CONTROL FOR STRESS PERIOD   16   TIME STEP   30



 STREAM LISTING     PERIOD     16   STEP       30

 LAYER ROW COL. STREAM  RCH.  FLOW INTO     FLOW TO   FLOW OUT OF   OVRLND.     DIRECT     STREAM       STREAM     STREAM     STREAM   STREAMBED  STREAMBED
                SEG.NO.  NO.  STRM. RCH.    AQUIFER    STRM. RCH.    RUNOFF     PRECIP       ET          HEAD       DEPTH      WIDTH   CONDCTNC.   GRADIENT

   1    1    1     1     1    8.8455E+01  4.5169E-01   8.8003E+01  0.000E+00  0.000E+00  0.000E+00  1.09480E+03  1.756E+00  2.111E+01  9.498E-02  1.585E+00
   1    2    2     1     2    8.8003E+01  7.0076E-01   8.7302E+01  0.000E+00  0.000E+00  0.000E+00  1.08981E+03  1.753E+00  2.106E+01  1.474E-01  1.584E+00
   1    3    3     1     3    8.7302E+01  5.9885E-01   8.6704E+01  0.000E+00  0.000E+00  0.000E+00  1.08417E+03  1.751E+00  2.101E+01  1.260E-01  1.584E+00
   1    3    4     1     4    8.6704E+01  5.5245E-01   8.6151E+01  0.000E+00  0.000E+00  0.000E+00  1.07916E+03  1.749E+00  2.096E+01  1.163E-01  1.583E+00
   1    4    5     2     1    8.4151E+01  4.2881E-01   8.3722E+01  0.000E+00  0.000E+00  0.000E+00  1.07443E+03  2.498E+00  1.200E+01  7.800E-02  1.833E+00
   1    5    6     2     2    8.3722E+01  3.2945E-01   8.3393E+01  0.000E+00  0.000E+00  0.000E+00  1.06900E+03  2.491E+00  1.200E+01  6.000E-02  1.830E+00
   1    6    6     2     3    8.3393E+01  3.2909E-01   8.3064E+01  0.000E+00  0.000E+00  0.000E+00  1.06428E+03  2.485E+00  1.200E+01  6.000E-02  1.828E+00
   1    7    6     2     4    8.3064E+01  3.2874E-01   8.2735E+01  0.000E+00  0.000E+00  0.000E+00  1.05955E+03  2.479E+00  1.200E+01  6.000E-02  1.826E+00
   1    8    6     2     5    8.2735E+01  3.2839E-01   8.2407E+01  0.000E+00  0.000E+00  0.000E+00  1.05483E+03  2.473E+00  1.200E+01  6.000E-02  1.824E+00
   1    3    5     3     1    2.0000E+00  2.8252E-01   1.7175E+00  0.000E+00  0.000E+00  0.000E+00  1.07555E+03  1.909E+00  9.636E+00  7.227E-02  1.955E+00
   1    3    6     3     2    1.7175E+00  2.4905E-01   1.4684E+00  0.000E+00  0.000E+00  0.000E+00  1.07264E+03  1.727E+00  8.909E+00  6.682E-02  1.864E+00
   1    3    7     3     3    1.4684E+00  1.9718E-01   1.2712E+00  0.000E+00  0.000E+00  0.000E+00  1.06987E+03  1.555E+00  8.218E+00  5.547E-02  1.777E+00
   1    4    8     3     4    1.2712E+00  2.2567E-01   1.0456E+00  0.000E+00  0.000E+00  0.000E+00  1.06682E+03  1.364E+00  7.455E+00  6.709E-02  1.682E+00
   1    5    8     3     5    1.0456E+00  1.5790E-01   8.8768E-01  0.000E+00  0.000E+00  0.000E+00  1.06362E+03  1.164E+00  6.655E+00  4.991E-02  1.582E+00
   1    6    8     3     6    8.8768E-01  5.5980E-02   8.3170E-01  0.000E+00  0.000E+00  0.000E+00  1.06158E+03  1.036E+00  6.145E+00  1.844E-02  1.518E+00
   1    5   10     4     1    1.0000E+01  9.0919E-02   9.9091E+00  0.000E+00  0.000E+00  0.000E+00  1.07836E+03  6.368E-01  1.000E+01  2.500E-02  1.212E+00
   1    5    9     4     2    9.9091E+00  1.8158E-01   9.7275E+00  0.000E+00  0.000E+00  0.000E+00  1.07154E+03  6.315E-01  1.000E+01  5.000E-02  1.211E+00
   1    6    8     4     3    9.7275E+00  1.2689E-01   9.6006E+00  0.000E+00  0.000E+00  0.000E+00  1.06381E+03  6.256E-01  1.000E+01  3.500E-02  1.209E+00
   1    6    8     5     1    1.0432E+01  2.2686E-01   1.0205E+01  0.000E+00  0.000E+00  0.000E+00  1.05868E+03  6.790E-01  1.542E+01  6.166E-02  1.226E+00
   1    7    7     5     2    1.0205E+01  2.7894E-01   9.9265E+00  0.000E+00  0.000E+00  0.000E+00  1.05417E+03  6.732E-01  1.519E+01  7.594E-02  1.224E+00
   1    8    7     5     3    9.9265E+00  1.9221E-01   9.7343E+00  0.000E+00  0.000E+00  0.000E+00  1.04992E+03  6.676E-01  1.497E+01  5.241E-02  1.223E+00
   1    8    6     5     4    9.7343E+00  1.3577E-01   9.5985E+00  0.000E+00  0.000E+00  0.000E+00  1.04691E+03  6.637E-01  1.482E+01  3.706E-02  1.221E+00
   1    9    6     6     1    9.2005E+01  3.3993E-01   9.1665E+01  0.000E+00  0.000E+00  0.000E+00  1.04539E+03  2.665E+00  1.200E+01  6.000E-02  1.888E+00
   1   10    7     6     2    9.1665E+01  3.3957E-01   9.1326E+01  0.000E+00  0.000E+00  0.000E+00  1.04084E+03  2.660E+00  1.200E+01  6.000E-02  1.887E+00
   1   11    7     6     3    9.1326E+01  3.3922E-01   9.0986E+01  0.000E+00  0.000E+00  0.000E+00  1.03629E+03  2.654E+00  1.200E+01  6.000E-02  1.885E+00
   1   12    7     6     4    9.0986E+01  3.3886E-01   9.0648E+01  0.000E+00  0.000E+00  0.000E+00  1.03174E+03  2.648E+00  1.200E+01  6.000E-02  1.883E+00
   1   13    7     6     5    9.0648E+01  3.4423E-02   9.0613E+01  0.000E+00  0.000E+00  0.000E+00  1.02855E+03  2.644E+00  1.200E+01  2.400E-02  4.781E-01
   1   14    9     7     1    1.5000E+02  1.3299E+00   1.4867E+02  0.000E+00  0.000E+00  0.000E+00  1.03987E+03  2.288E+00  5.529E+01  5.593E-01  7.926E-01
   1   13    8     7     2    1.4867E+02  1.8170E+00   1.4685E+02  0.000E+00  0.000E+00  0.000E+00  1.03478E+03  2.279E+00  5.526E+01  6.148E-01  9.852E-01
   1   13    7     7     3    1.4685E+02  1.4357E+00   1.4542E+02  0.000E+00  0.000E+00  0.000E+00  1.02969E+03  2.271E+00  5.522E+01  5.585E-01  8.569E-01
   1   13    6     8     1    2.3603E+02  1.1608E+00   2.3487E+02  0.000E+00  0.000E+00  0.000E+00  1.02521E+03  3.336E+00  4.837E+01  4.929E-01  7.851E-01
   1   13    5     8     2    2.3487E+02  3.2127E-01   2.3455E+02  0.000E+00  0.000E+00  0.000E+00  1.01896E+03  3.332E+00  4.831E+01  4.923E-01  2.175E-01
   1   13    4     8     3    2.3455E+02 -2.2145E+00   2.3676E+02  0.000E+00  0.000E+00  0.000E+00  1.01271E+03  3.337E+00  4.838E+01  4.930E+00 -1.497E-01
   1   13    3     8     4    2.3676E+02 -3.5824E+00   2.4035E+02  0.000E+00  0.000E+00  0.000E+00  1.00648E+03  3.352E+00  4.861E+01  4.953E+00 -2.411E-01
   1   13    2     8     5    2.4035E+02 -2.5580E+00   2.4290E+02  0.000E+00  0.000E+00  0.000E+00  1.00024E+03  3.368E+00  4.884E+01  4.977E+00 -1.713E-01
   1   13    1     8     6    2.4290E+02 -1.8859E+00   2.4479E+02  0.000E+00  0.000E+00  0.000E+00  9.95255E+02  3.380E+00  4.901E+01  2.996E+00 -2.098E-01





UNSATURATED ZONE PACKAGE VOLUMETRIC BUDGET FOR  TIME STEP    30 STRESS PERIOD   16
  ------------------------------------------------------------------------------



     CUMULATIVE VOLUMES      L**3       RATES FOR THIS TIME STEP      L**3/T
     ------------------                 ------------------------

           IN:                                      IN:
           ---                                      ---
        INFILTRATION =   437409241.5779          INFILTRATION =           0.8475

          OUT:                                     OUT:
          ----                                     ----
              UZF ET =   435957054.3471                UZF ET =           0.7500
        UZF RECHARGE =       73224.0000          UZF RECHARGE =       0.0000E+00

            IN - OUT =     1378963.2308              IN - OUT =       9.7500E-02

          STORAGE:                                 STORAGE:
          --------                                 --------
      STORAGE CHANGE =     1378961.6049        STORAGE CHANGE =       9.7500E-02

 PERCENT DISCREPANCY IS DIFFERENCE BETWEEN IN-OUT MINUS CHANGE IN STORAGE
 DIVIDED BY THE AVERAGE OF IN AND OUT TIMES 100

 PERCENT DISCREPANCY =           0.00     PERCENT DISCREPANCY =           0.00






1
  VOLUMETRIC BUDGET FOR AGRICULTURAL FIELDS AT  END OF TIME STEP   30, STRESS PERIOD  16
  ------------------------------------------------------------------------------

     CUMULATIVE VOLUMES      L**3       RATES FOR THIS TIME STEP      L**3/T
     ------------------                 ------------------------

           IN:                                      IN:
           ---                                      ---
               AG WELLS  =   403901728.0000                 AG WELLS  =           0.0000
      DIVERSION SEGMENTS =           0.0000        DIVERSION SEGMENTS =           0.0000
       IRRIGATION PONDS  =           0.0000         IRRIGATION PONDS  =           0.0000
           GW IRRIGATION =           0.0000             GW IRRIGATION =           0.0000
           SW IRRIGATION =           0.0000             SW IRRIGATION =           0.0000
        SYSTEM LOSSES GW =           0.0000          SYSTEM LOSSES GW =           0.0000
        SYSTEM LOSSES SW =           0.0000          SYSTEM LOSSES SW =           0.0000

                TOTAL IN =   403901728.0000                  TOTAL IN =           0.0000

          OUT:                                     OUT:
          ----                                     ----
               AG WELLS  =           0.0000                 AG WELLS  =           0.0000
      DIVERSION SEGMENTS =           0.0000        DIVERSION SEGMENTS =           0.0000
       IRRIGATION PONDS  =           0.0000         IRRIGATION PONDS  =           0.0000
           GW IRRIGATION =   403901728.0000             GW IRRIGATION =           0.0000
           SW IRRIGATION =           0.0000             SW IRRIGATION =           0.0000
        SYSTEM LOSSES GW =           0.0000          SYSTEM LOSSES GW =           0.0000
        SYSTEM LOSSES SW =           0.0000          SYSTEM LOSSES SW =           0.0000

               TOTAL OUT =   403901728.0000                 TOTAL OUT =           0.0000

                IN - OUT =           0.0000                  IN - OUT =           0.0000

     PERCENT DISCREPANCY =           0.00         PERCENT DISCREPANCY =           0.00



1
  VOLUMETRIC BUDGET FOR ENTIRE MODEL AT END OF TIME STEP   30, STRESS PERIOD  16
  ------------------------------------------------------------------------------

     CUMULATIVE VOLUMES      L**3       RATES FOR THIS TIME STEP      L**3/T
     ------------------                 ------------------------

           IN:                                      IN:
           ---                                      ---
             STORAGE     =   574696384.0000               STORAGE     =           2.9582
       CONSTANT HEAD     =           0.0000         CONSTANT HEAD     =           0.0000
     HEAD DEP BOUNDS     =    11284191.0000       HEAD DEP BOUNDS     =           0.2854
      STREAM LEAKAGE     =   491859776.0000        STREAM LEAKAGE     =          13.9064
        UZF RECHARGE     =       73223.9531          UZF RECHARGE     =           0.0000
               GW ET     =           0.0000                 GW ET     =           0.0000
     SURFACE LEAKAGE     =           0.0000       SURFACE LEAKAGE     =           0.0000
           AG WELLS      =           0.0000             AG WELLS      =           0.0000

                TOTAL IN =  1077913600.0000                  TOTAL IN =          17.1500

          OUT:                                     OUT:
          ----                                     ----
             STORAGE     =   241508704.0000               STORAGE     =           6.6053
       CONSTANT HEAD     =           0.0000         CONSTANT HEAD     =           0.0000
     HEAD DEP BOUNDS     =    11629986.0000       HEAD DEP BOUNDS     =           0.2996
      STREAM LEAKAGE     =   407106432.0000        STREAM LEAKAGE     =          10.2407
        UZF RECHARGE     =           0.0000          UZF RECHARGE     =           0.0000
               GW ET     =    13773464.0000                 GW ET     =       5.4205E-03
     SURFACE LEAKAGE     =           0.0000       SURFACE LEAKAGE     =           0.0000
           AG WELLS      =   403901728.0000             AG WELLS      =           0.0000

               TOTAL OUT =  1077920256.0000                 TOTAL OUT =          17.1510

                IN - OUT =       -6656.0000                  IN - OUT =      -1.0414E-03

     PERCENT DISCREPANCY =          -0.00         PERCENT DISCREPANCY =          -0.01






         TIME SUMMARY AT END OF TIME STEP   30 IN STRESS PERIOD   16
                    SECONDS     MINUTES      HOURS       DAYS        YEARS
                    -----------------------------------------------------------
   TIME STEP LENGTH  87667.      1461.1      24.352      1.0147     2.77799E-03
 STRESS PERIOD TIME 2.63000E+06  43833.      730.56      30.440     8.33397E-02
         TOTAL TIME 3.95364E+07 6.58940E+05  10982.      457.60      1.2528    
1
1
                            STRESS PERIOD NO.   17, LENGTH =   2630000.    
                            -----------------------------------------------

                              NUMBER OF TIME STEPS =    30

                               MULTIPLIER FOR DELT =     1.000

                            INITIAL TIME STEP SIZE =   87666.66    

 REUSING NON-PARAMETER GHB CELLS FROM LAST STRESS PERIOD

      2 GHB CELLS

 REUSING STREAM SEGMENT DATA FROM LAST STRESS PERIOD



            AREAL INFILTRATION RATE
 READING ON UNIT   19 WITH FORMAT: (FREE)              

            1           2           3           4           5           6           7           8           9          10
 ........................................................................................................................
   1   1.0000E-10  2.0000E-10   0.000       0.000       0.000       0.000       0.000       0.000       0.000       0.000    
   2   2.0000E-10  1.0000E-10  2.0000E-10   0.000       0.000      8.0000E-10  8.0000E-10  5.0000E-10   0.000       0.000    
   3    0.000      5.0000E-10  1.0000E-10  1.0000E-10  8.0000E-10  8.0000E-10  5.0000E-10  5.0000E-10   0.000       0.000    
   4   8.0000E-10  5.0000E-10  1.0000E-10  1.0000E-10  1.0000E-10  1.0000E-10  1.0000E-10  1.0000E-10  2.0000E-10   0.000    
   5   8.0000E-10  5.0000E-10  1.0000E-10  1.0000E-10  1.0000E-10  1.0000E-10  1.0000E-10  1.0000E-10  1.0000E-10  1.0000E-10
   6   8.0000E-10  5.0000E-10  5.0000E-10  2.0000E-10  2.0000E-10  1.0000E-10  1.0000E-10  1.0000E-10  1.0000E-10  5.0000E-10
   7   8.0000E-10  5.0000E-10  5.0000E-10  2.0000E-10  2.0000E-10  1.0000E-10  1.0000E-10  2.0000E-10  2.0000E-10   0.000    
   8    0.000      5.0000E-10  5.0000E-10  2.0000E-10  2.0000E-10  1.0000E-10  1.0000E-10  2.0000E-10  5.0000E-10   0.000    
   9    0.000      5.0000E-10  5.0000E-10  2.0000E-10  2.0000E-10  1.0000E-10  1.0000E-10  2.0000E-10  5.0000E-10   0.000    
  10    0.000      5.0000E-10  5.0000E-10  2.0000E-10  2.0000E-10  1.0000E-10  1.0000E-10  2.0000E-10  5.0000E-10  8.0000E-10
  11    0.000      1.0000E-10  1.0000E-10  1.0000E-10  1.0000E-10  1.0000E-10  1.0000E-10  2.0000E-10  5.0000E-10   0.000    
  12   1.0000E-10  1.0000E-10  1.0000E-10  1.0000E-10  1.0000E-10  1.0000E-10  1.0000E-10  1.0000E-10  2.0000E-10   0.000    
  13   1.0000E-10  1.0000E-10  2.0000E-10  2.0000E-10  2.0000E-10  2.0000E-10  2.0000E-10  1.0000E-10  1.0000E-10   0.000    
  14    0.000      2.0000E-10  5.0000E-10  5.0000E-10  5.0000E-10  5.0000E-10  5.0000E-10  2.0000E-10  1.0000E-10   0.000    
  15    0.000       0.000      8.0000E-10  8.0000E-10  8.0000E-10  8.0000E-10   0.000       0.000       0.000       0.000    

                  ET RATE =  2.500000E-08

 USING ET EXTINCTION DEPTH FROM PREVIOUS STRESS PERIOD. CURRENT PERIOD IS:      17

 USING EXTINCTION WATER CONTENT FROM PREVIOUS STRESS PERIOD. CURRENT PERIOD IS:      17

 USING AIR ENTRY PRESSURE FROM PREVIOUS STRESS PERIOD. CURRENT PERIOD IS:      17

 USING ROOT PRESSURE HEAD FROM PREVIOUS STRESS PERIOD. CURRENT PERIOD IS:      17

 USING ROOT ACTIVITY FROM PREVIOUS STRESS PERIOD. CURRENT PERIOD IS:      17

 PROCESSING AG STRESS PERIOD DATA

 READING AG STRESS PERIOD DATA

 READING IRRIGATION WELL

 NO IRRPOND OR REUSING IRRPOND DATA FROM LAST STRESS PERIOD

 END PROCESSING AG STRESS PERIOD DATA OPTIONS
 
 SOLVING FOR HEAD 
                                                   Max.-Head-Change                         Max.-Flux-Residual
  Residual-Control   Outer-Iter.   Inner-Iter.     Column Row Layer    Maximum-Head-Change  Column Row Layer    Maximum-Flux-Residual          L2-NORM 
          0                 1           2             4   13     1      -0.1000731416E-01       4   13    1        -0.5908179219E+00      0.1377122339E+01
          0                 2           2             4   13     1       0.9645710642E-03       4   13    1         0.5855351673E-01      0.1362915181E+00
          0                 3           1             4   13     1      -0.6484180357E-04       4   13    1        -0.4047185088E-02      0.9411134219E-02

    ------------------------------------------------
       NWT REQUIRED            3 OUTER ITERATIONS 
       AND A TOTAL OF          5 INNER ITERATIONS.
    ------------------------------------------------

 NO OUTPUT CONTROL FOR STRESS PERIOD   17   TIME STEP    1
 
 SOLVING FOR HEAD 
                                                   Max.-Head-Change                         Max.-Flux-Residual
  Residual-Control   Outer-Iter.   Inner-Iter.     Column Row Layer    Maximum-Head-Change  Column Row Layer    Maximum-Flux-Residual          L2-NORM 
          0                 1           2             4    7     1       0.9226202046E-02       4   13    1        -0.5200950698E+00      0.1566703569E+01
          0                 2           2             4    7     1      -0.1243977519E-01       4    7    1        -0.6681370309E+00      0.1624791544E+01
          0                 3           2             4    7     1       0.8471000810E-03       4    7    1         0.4676945383E-01      0.1137263749E+00
          0                 4           1             4    7     1      -0.3370691654E-04       4    7    1        -0.1912874047E-02      0.4650871271E-02

    ------------------------------------------------
       NWT REQUIRED            4 OUTER ITERATIONS 
       AND A TOTAL OF          7 INNER ITERATIONS.
    ------------------------------------------------

 NO OUTPUT CONTROL FOR STRESS PERIOD   17   TIME STEP    2
 
 SOLVING FOR HEAD 
                                                   Max.-Head-Change                         Max.-Flux-Residual
  Residual-Control   Outer-Iter.   Inner-Iter.     Column Row Layer    Maximum-Head-Change  Column Row Layer    Maximum-Flux-Residual          L2-NORM 
          0                 1           2             4    7     1       0.9232915471E-02       4    7    1         0.4827174046E+00      0.1526858558E+01
          0                 2           2             4    7     1      -0.1244046660E-01       4    7    1        -0.6681468962E+00      0.1626353944E+01
          0                 3           2             4    7     1       0.8471471750E-03       4    7    1         0.4677014517E-01      0.1138374205E+00
          0                 4           1             4    7     1      -0.3370879081E-04       4    7    1        -0.1912902334E-02      0.4655523373E-02

    ------------------------------------------------
       NWT REQUIRED            4 OUTER ITERATIONS 
       AND A TOTAL OF          7 INNER ITERATIONS.
    ------------------------------------------------

 NO OUTPUT CONTROL FOR STRESS PERIOD   17   TIME STEP    3
 
 SOLVING FOR HEAD 
                                                   Max.-Head-Change                         Max.-Flux-Residual
  Residual-Control   Outer-Iter.   Inner-Iter.     Column Row Layer    Maximum-Head-Change  Column Row Layer    Maximum-Flux-Residual          L2-NORM 
          0                 1           2             4    7     1       0.9244265889E-02       4    7    1         0.4830581025E+00      0.1495697463E+01
          0                 2           2             4    7     1      -0.1244160916E-01       4    7    1        -0.6681829880E+00      0.1627919274E+01
          0                 3           2             4    7     1       0.8472249900E-03       4    7    1         0.4677267230E-01      0.1139517731E+00
          0                 4           1             4    7     1      -0.3371188706E-04       4    7    1        -0.1913005691E-02      0.4669557789E-02

    ------------------------------------------------
       NWT REQUIRED            4 OUTER ITERATIONS 
       AND A TOTAL OF          7 INNER ITERATIONS.
    ------------------------------------------------

 NO OUTPUT CONTROL FOR STRESS PERIOD   17   TIME STEP    4
 
 SOLVING FOR HEAD 
                                                   Max.-Head-Change                         Max.-Flux-Residual
  Residual-Control   Outer-Iter.   Inner-Iter.     Column Row Layer    Maximum-Head-Change  Column Row Layer    Maximum-Flux-Residual          L2-NORM 
          0                 1           2             4    7     1       0.9260117458E-02       4    7    1         0.4836539613E+00      0.1471714216E+01
          0                 2           2             4    7     1      -0.1244318745E-01       4    7    1        -0.6682444769E+00      0.1629472658E+01
          0                 3           2             4    7     1       0.8473324754E-03       4    7    1         0.4677697719E-01      0.1140580945E+00
          0                 4           1             4    7     1      -0.3371616393E-04       4    7    1        -0.1913181769E-02      0.4664693139E-02

    ------------------------------------------------
       NWT REQUIRED            4 OUTER ITERATIONS 
       AND A TOTAL OF          7 INNER ITERATIONS.
    ------------------------------------------------

 NO OUTPUT CONTROL FOR STRESS PERIOD   17   TIME STEP    5
 
 SOLVING FOR HEAD 
                                                   Max.-Head-Change                         Max.-Flux-Residual
  Residual-Control   Outer-Iter.   Inner-Iter.     Column Row Layer    Maximum-Head-Change  Column Row Layer    Maximum-Flux-Residual          L2-NORM 
          0                 1           2             4    7     1       0.9279938591E-02       4    7    1         0.4844758246E+00      0.1453604910E+01
          0                 2           2             4    7     1      -0.1244515195E-01       4    7    1        -0.6683285667E+00      0.1631003858E+01
          0                 3           2             4    7     1       0.8474662592E-03       4    7    1         0.4678286404E-01      0.1141661722E+00
          0                 4           1             4    7     1      -0.3372148755E-04       4    7    1        -0.1913422537E-02      0.4669189177E-02

    ------------------------------------------------
       NWT REQUIRED            4 OUTER ITERATIONS 
       AND A TOTAL OF          7 INNER ITERATIONS.
    ------------------------------------------------

 NO OUTPUT CONTROL FOR STRESS PERIOD   17   TIME STEP    6
 
 SOLVING FOR HEAD 
                                                   Max.-Head-Change                         Max.-Flux-Residual
  Residual-Control   Outer-Iter.   Inner-Iter.     Column Row Layer    Maximum-Head-Change  Column Row Layer    Maximum-Flux-Residual          L2-NORM 
          0                 1           2             4    7     1       0.9303507050E-02       4    7    1         0.4855108803E+00      0.1440289315E+01
          0                 2           2             4    7     1      -0.1244748119E-01       4    7    1        -0.6684339834E+00      0.1632506710E+01
          0                 3           2             4    7     1       0.8476248794E-03       4    7    1         0.4679024374E-01      0.1142720505E+00
          0                 4           1             4    7     1      -0.3372779896E-04       4    7    1        -0.1913724367E-02      0.4673561148E-02

    ------------------------------------------------
       NWT REQUIRED            4 OUTER ITERATIONS 
       AND A TOTAL OF          7 INNER ITERATIONS.
    ------------------------------------------------

 NO OUTPUT CONTROL FOR STRESS PERIOD   17   TIME STEP    7
 
 SOLVING FOR HEAD 
                                                   Max.-Head-Change                         Max.-Flux-Residual
  Residual-Control   Outer-Iter.   Inner-Iter.     Column Row Layer    Maximum-Head-Change  Column Row Layer    Maximum-Flux-Residual          L2-NORM 
          0                 1           2             4    7     1       0.9330334627E-02       4    7    1         0.4867328426E+00      0.1430828764E+01
          0                 2           2             4    7     1      -0.1245012627E-01       4    7    1        -0.6685580241E+00      0.1633973226E+01
          0                 3           2             4    7     1       0.8478050063E-03       4    7    1         0.4679892705E-01      0.1143752936E+00
          0                 4           1             4    7     1      -0.3373496600E-04       4    7    1        -0.1914079500E-02      0.4677816127E-02

    ------------------------------------------------
       NWT REQUIRED            4 OUTER ITERATIONS 
       AND A TOTAL OF          7 INNER ITERATIONS.
    ------------------------------------------------

 NO OUTPUT CONTROL FOR STRESS PERIOD   17   TIME STEP    8
 
 SOLVING FOR HEAD 
                                                   Max.-Head-Change                         Max.-Flux-Residual
  Residual-Control   Outer-Iter.   Inner-Iter.     Column Row Layer    Maximum-Head-Change  Column Row Layer    Maximum-Flux-Residual          L2-NORM 
          0                 1           2             4    7     1       0.9360102534E-02       4    7    1         0.4881237909E+00      0.1424489336E+01
          0                 2           2             4    7     1      -0.1245305632E-01       4    7    1        -0.6686989041E+00      0.1635402391E+01
          0                 3           2             4    7     1       0.8480045377E-03       4    7    1         0.4680878907E-01      0.1144757691E+00
          0                 4           1             4    7     1      -0.3374290554E-04       4    7    1        -0.1914482849E-02      0.4681816942E-02

    ------------------------------------------------
       NWT REQUIRED            4 OUTER ITERATIONS 
       AND A TOTAL OF          7 INNER ITERATIONS.
    ------------------------------------------------

 NO OUTPUT CONTROL FOR STRESS PERIOD   17   TIME STEP    9
 
 SOLVING FOR HEAD 
                                                   Max.-Head-Change                         Max.-Flux-Residual
  Residual-Control   Outer-Iter.   Inner-Iter.     Column Row Layer    Maximum-Head-Change  Column Row Layer    Maximum-Flux-Residual          L2-NORM 
          0                 1           2             4    7     1       0.9392644594E-02       4    7    1         0.4896745528E+00      0.1420644998E+01
          0                 2           2             4    7     1      -0.1245625614E-01       4    7    1        -0.6688557584E+00      0.1636791313E+01
          0                 3           2             4    7     1       0.8482224390E-03       4    7    1         0.4681976923E-01      0.1145733876E+00
          0                 4           1             4    7     1      -0.3375157638E-04       4    7    1        -0.1914931946E-02      0.4685973061E-02

    ------------------------------------------------
       NWT REQUIRED            4 OUTER ITERATIONS 
       AND A TOTAL OF          7 INNER ITERATIONS.
    ------------------------------------------------

 NO OUTPUT CONTROL FOR STRESS PERIOD   17   TIME STEP   10
 
 SOLVING FOR HEAD 
                                                   Max.-Head-Change                         Max.-Flux-Residual
  Residual-Control   Outer-Iter.   Inner-Iter.     Column Row Layer    Maximum-Head-Change  Column Row Layer    Maximum-Flux-Residual          L2-NORM 
          0                 1           2             4    7     1       0.9427540475E-02       4    7    1         0.4913617934E+00      0.1418769365E+01
          0                 2           2             4    7     1      -0.1245968511E-01       4    7    1        -0.6690262683E+00      0.1638137294E+01
          0                 3           2             4    7     1       0.8484559440E-03       4    7    1         0.4683170526E-01      0.1146678806E+00
          0                 4           1             4    7     1      -0.3376086775E-04       4    7    1        -0.1915420140E-02      0.4689842705E-02

    ------------------------------------------------
       NWT REQUIRED            4 OUTER ITERATIONS 
       AND A TOTAL OF          7 INNER ITERATIONS.
    ------------------------------------------------

 NO OUTPUT CONTROL FOR STRESS PERIOD   17   TIME STEP   11
 
 SOLVING FOR HEAD 
                                                   Max.-Head-Change                         Max.-Flux-Residual
  Residual-Control   Outer-Iter.   Inner-Iter.     Column Row Layer    Maximum-Head-Change  Column Row Layer    Maximum-Flux-Residual          L2-NORM 
          0                 1           2             4    7     1       0.9464527041E-02       4    8    1         0.4940686924E+00      0.1418473062E+01
          0                 2           2             4    7     1      -0.1246331637E-01       4    8    1        -0.6692987993E+00      0.1639441148E+01
          0                 3           2             4    7     1       0.8487032232E-03       4    8    1         0.4685050283E-01      0.1147594070E+00
          0                 4           1             4    7     1      -0.3377070713E-04       4    8    1        -0.1916190237E-02      0.4693599414E-02

    ------------------------------------------------
       NWT REQUIRED            4 OUTER ITERATIONS 
       AND A TOTAL OF          7 INNER ITERATIONS.
    ------------------------------------------------

 NO OUTPUT CONTROL FOR STRESS PERIOD   17   TIME STEP   12
 
 SOLVING FOR HEAD 
                                                   Max.-Head-Change                         Max.-Flux-Residual
  Residual-Control   Outer-Iter.   Inner-Iter.     Column Row Layer    Maximum-Head-Change  Column Row Layer    Maximum-Flux-Residual          L2-NORM 
          0                 1           2             4    7     1       0.9503628841E-02       4    8    1         0.4991820279E+00      0.1419406076E+01
          0                 2           2             4    7     1      -0.1246715232E-01       4    8    1        -0.6698118089E+00      0.1640702064E+01
          0                 3           2             4    7     1       0.8489644406E-03       4    8    1         0.4688641250E-01      0.1148478734E+00
          0                 4           1             4    7     1      -0.3378110073E-04       4    8    1        -0.1917658951E-02      0.4697230707E-02

    ------------------------------------------------
       NWT REQUIRED            4 OUTER ITERATIONS 
       AND A TOTAL OF          7 INNER ITERATIONS.
    ------------------------------------------------

 NO OUTPUT CONTROL FOR STRESS PERIOD   17   TIME STEP   13
 
 SOLVING FOR HEAD 
                                                   Max.-Head-Change                         Max.-Flux-Residual
  Residual-Control   Outer-Iter.   Inner-Iter.     Column Row Layer    Maximum-Head-Change  Column Row Layer    Maximum-Flux-Residual          L2-NORM 
          0                 1           2             4    8     1       0.9594534417E-02       5    8    1         0.5049252868E+00      0.1421309004E+01
          0                 2           2             4    7     1      -0.1247113192E-01       5    8    1        -0.6703878221E+00      0.1641921222E+01
          0                 3           2             4    7     1       0.8489845859E-03       5    8    1         0.4692683520E-01      0.1149172979E+00
          0                 4           1             4    7     1      -0.3378189592E-04       5    8    1        -0.1919311788E-02      0.4700081000E-02

    ------------------------------------------------
       NWT REQUIRED            4 OUTER ITERATIONS 
       AND A TOTAL OF          7 INNER ITERATIONS.
    ------------------------------------------------

 NO OUTPUT CONTROL FOR STRESS PERIOD   17   TIME STEP   14
 
 SOLVING FOR HEAD 
                                                   Max.-Head-Change                         Max.-Flux-Residual
  Residual-Control   Outer-Iter.   Inner-Iter.     Column Row Layer    Maximum-Head-Change  Column Row Layer    Maximum-Flux-Residual          L2-NORM 
          0                 1           2             4    8     1       0.9682920394E-02       5    8    1         0.5117206776E+00      0.1423953406E+01
          0                 2           2             4    7     1      -0.1247734624E-01       5    8    1        -0.6710690377E+00      0.1643144916E+01
          0                 3           2             4    7     1       0.8453663885E-03       5    8    1         0.4697451949E-01      0.1149099121E+00
          0                 4           1             4    7     1      -0.3363792448E-04       5    8    1        -0.1921262079E-02      0.4699789807E-02

    ------------------------------------------------
       NWT REQUIRED            4 OUTER ITERATIONS 
       AND A TOTAL OF          7 INNER ITERATIONS.
    ------------------------------------------------

 NO OUTPUT CONTROL FOR STRESS PERIOD   17   TIME STEP   15
 
 SOLVING FOR HEAD 
                                                   Max.-Head-Change                         Max.-Flux-Residual
  Residual-Control   Outer-Iter.   Inner-Iter.     Column Row Layer    Maximum-Head-Change  Column Row Layer    Maximum-Flux-Residual          L2-NORM 
          0                 1           2             4    8     1       0.9768122837E-02       5    8    1         0.5181297556E+00      0.1427124521E+01
          0                 2           2             4    7     1      -0.1248563334E-01       5    8    1        -0.6717115620E+00      0.1644224727E+01
          0                 3           2             4    7     1       0.8502243228E-03       5    8    1         0.4701949542E-01      0.1150948809E+00
          0                 4           1             4    7     1      -0.3383122625E-04       5    8    1        -0.1923101589E-02      0.4707370390E-02

    ------------------------------------------------
       NWT REQUIRED            4 OUTER ITERATIONS 
       AND A TOTAL OF          7 INNER ITERATIONS.
    ------------------------------------------------

 NO OUTPUT CONTROL FOR STRESS PERIOD   17   TIME STEP   16
 
 SOLVING FOR HEAD 
                                                   Max.-Head-Change                         Max.-Flux-Residual
  Residual-Control   Outer-Iter.   Inner-Iter.     Column Row Layer    Maximum-Head-Change  Column Row Layer    Maximum-Flux-Residual          L2-NORM 
          0                 1           2             5    8     1       0.9851273761E-02       5    8    1         0.5241705627E+00      0.1430710816E+01
          0                 2           2             4    7     1      -0.1248963487E-01       5    8    1        -0.6723172588E+00      0.1645310528E+01
          0                 3           2             4    7     1       0.8504968179E-03       5    8    1         0.4706189350E-01      0.1151709819E+00
          0                 4           1             4    7     1      -0.3384206920E-04       5    8    1        -0.1924835671E-02      0.4710479656E-02

    ------------------------------------------------
       NWT REQUIRED            4 OUTER ITERATIONS 
       AND A TOTAL OF          7 INNER ITERATIONS.
    ------------------------------------------------

 NO OUTPUT CONTROL FOR STRESS PERIOD   17   TIME STEP   17
 
 SOLVING FOR HEAD 
                                                   Max.-Head-Change                         Max.-Flux-Residual
  Residual-Control   Outer-Iter.   Inner-Iter.     Column Row Layer    Maximum-Head-Change  Column Row Layer    Maximum-Flux-Residual          L2-NORM 
          0                 1           2             5    8     1       0.9954940318E-02       5    8    1         0.5298751499E+00      0.1434638089E+01
          0                 2           2             4    7     1      -0.1249377209E-01       5    8    1        -0.6728892735E+00      0.1646359779E+01
          0                 3           2             4    7     1       0.8507785514E-03       5    8    1         0.4710193387E-01      0.1152444961E+00
          0                 4           1             4    7     1      -0.3385327987E-04       5    8    1        -0.1926473329E-02      0.4713488739E-02

    ------------------------------------------------
       NWT REQUIRED            4 OUTER ITERATIONS 
       AND A TOTAL OF          7 INNER ITERATIONS.
    ------------------------------------------------

 NO OUTPUT CONTROL FOR STRESS PERIOD   17   TIME STEP   18
 
 SOLVING FOR HEAD 
                                                   Max.-Head-Change                         Max.-Flux-Residual
  Residual-Control   Outer-Iter.   Inner-Iter.     Column Row Layer    Maximum-Head-Change  Column Row Layer    Maximum-Flux-Residual          L2-NORM 
          0                 1           2             5    8     1       0.1005294737E-01       5    8    1         0.5352659557E+00      0.1438790402E+01
          0                 2           2             4    7     1      -0.1249798776E-01       5    8    1        -0.6734299098E+00      0.1647370712E+01
          0                 3           2             4    7     1       0.8510656274E-03       5    8    1         0.4713977780E-01      0.1153153229E+00
          0                 4           1             4    7     1      -0.3386470260E-04       5    8    1        -0.1928021158E-02      0.4716393019E-02

    ------------------------------------------------
       NWT REQUIRED            4 OUTER ITERATIONS 
       AND A TOTAL OF          7 INNER ITERATIONS.
    ------------------------------------------------

 NO OUTPUT CONTROL FOR STRESS PERIOD   17   TIME STEP   19
 
 SOLVING FOR HEAD 
                                                   Max.-Head-Change                         Max.-Flux-Residual
  Residual-Control   Outer-Iter.   Inner-Iter.     Column Row Layer    Maximum-Head-Change  Column Row Layer    Maximum-Flux-Residual          L2-NORM 
          0                 1           2             5    8     1       0.1014552355E-01       5    8    1         0.5403554480E+00      0.1443114713E+01
          0                 2           2             4    7     1      -0.1250230741E-01       5    8    1        -0.6739404216E+00      0.1648346743E+01
          0                 3           2             4    7     1       0.8513597828E-03       5    8    1         0.4717551307E-01      0.1153836997E+00
          0                 4           1             4    7     1      -0.3387640705E-04       5    8    1        -0.1929482745E-02      0.4719187084E-02

    ------------------------------------------------
       NWT REQUIRED            4 OUTER ITERATIONS 
       AND A TOTAL OF          7 INNER ITERATIONS.
    ------------------------------------------------

 NO OUTPUT CONTROL FOR STRESS PERIOD   17   TIME STEP   20
 
 SOLVING FOR HEAD 
                                                   Max.-Head-Change                         Max.-Flux-Residual
  Residual-Control   Outer-Iter.   Inner-Iter.     Column Row Layer    Maximum-Head-Change  Column Row Layer    Maximum-Flux-Residual          L2-NORM 
          0                 1           2             5    8     1       0.1023315747E-01       5    8    1         0.5451712202E+00      0.1447539288E+01
          0                 2           2             4    7     1      -0.1250668724E-01       5    8    1        -0.6744234869E+00      0.1649287385E+01
          0                 3           2             4    7     1       0.8516580367E-03       5    8    1         0.4720932710E-01      0.1154495929E+00
          0                 4           1             4    7     1      -0.3388827509E-04       5    8    1        -0.1930865736E-02      0.4721899368E-02

    ------------------------------------------------
       NWT REQUIRED            4 OUTER ITERATIONS 
       AND A TOTAL OF          7 INNER ITERATIONS.
    ------------------------------------------------

 NO OUTPUT CONTROL FOR STRESS PERIOD   17   TIME STEP   21
 
 SOLVING FOR HEAD 
                                                   Max.-Head-Change                         Max.-Flux-Residual
  Residual-Control   Outer-Iter.   Inner-Iter.     Column Row Layer    Maximum-Head-Change  Column Row Layer    Maximum-Flux-Residual          L2-NORM 
          0                 1           2             5    8     1       0.1031602018E-01       5    8    1         0.5497228853E+00      0.1452018658E+01
          0                 2           2             4    7     1      -0.1251112734E-01       5    8    1        -0.6748800961E+00      0.1650194088E+01
          0                 3           2             4    7     1       0.8519603938E-03       5    8    1         0.4724128927E-01      0.1155130749E+00
          0                 4           1             4    7     1      -0.3390030592E-04       5    8    1        -0.1932173004E-02      0.4724479771E-02

    ------------------------------------------------
       NWT REQUIRED            4 OUTER ITERATIONS 
       AND A TOTAL OF          7 INNER ITERATIONS.
    ------------------------------------------------

 NO OUTPUT CONTROL FOR STRESS PERIOD   17   TIME STEP   22
 
 SOLVING FOR HEAD 
                                                   Max.-Head-Change                         Max.-Flux-Residual
  Residual-Control   Outer-Iter.   Inner-Iter.     Column Row Layer    Maximum-Head-Change  Column Row Layer    Maximum-Flux-Residual          L2-NORM 
          0                 1           2             5    8     1       0.1039441889E-01       5    8    1         0.5540271404E+00      0.1456520381E+01
          0                 2           2             4    7     1      -0.1251560408E-01       5    8    1        -0.6753119495E+00      0.1651068488E+01
          0                 3           2             4    7     1       0.8522652467E-03       5    8    1         0.4727151855E-01      0.1155743153E+00
          0                 4           1             4    7     1      -0.3391243657E-04       5    8    1        -0.1933409381E-02      0.4726990092E-02

    ------------------------------------------------
       NWT REQUIRED            4 OUTER ITERATIONS 
       AND A TOTAL OF          7 INNER ITERATIONS.
    ------------------------------------------------

 NO OUTPUT CONTROL FOR STRESS PERIOD   17   TIME STEP   23
 
 SOLVING FOR HEAD 
                                                   Max.-Head-Change                         Max.-Flux-Residual
  Residual-Control   Outer-Iter.   Inner-Iter.     Column Row Layer    Maximum-Head-Change  Column Row Layer    Maximum-Flux-Residual          L2-NORM 
          0                 1           2             5    8     1       0.1046863200E-01       5    8    1         0.5580999623E+00      0.1461018945E+01
          0                 2           2             4    7     1      -0.1252011560E-01       5    8    1        -0.6757206665E+00      0.1651911838E+01
          0                 3           2             4    7     1       0.8525724667E-03       5    8    1         0.4730012832E-01      0.1156333690E+00
          0                 4           1             4    7     1      -0.3392466117E-04       5    8    1        -0.1934579516E-02      0.4729408199E-02

    ------------------------------------------------
       NWT REQUIRED            4 OUTER ITERATIONS 
       AND A TOTAL OF          7 INNER ITERATIONS.
    ------------------------------------------------

 NO OUTPUT CONTROL FOR STRESS PERIOD   17   TIME STEP   24
 
 SOLVING FOR HEAD 
                                                   Max.-Head-Change                         Max.-Flux-Residual
  Residual-Control   Outer-Iter.   Inner-Iter.     Column Row Layer    Maximum-Head-Change  Column Row Layer    Maximum-Flux-Residual          L2-NORM 
          0                 1           2             5    8     1       0.1053892207E-01       5    8    1         0.5619557718E+00      0.1465486001E+01
          0                 2           2             4    7     1      -0.1252465494E-01       5    8    1        -0.6761076893E+00      0.1652725057E+01
          0                 3           2             4    7     1       0.8528815812E-03       5    8    1         0.4732721952E-01      0.1156903055E+00
          0                 4           1             4    7     1      -0.3393696105E-04       5    8    1        -0.1935687553E-02      0.4731731646E-02

    ------------------------------------------------
       NWT REQUIRED            4 OUTER ITERATIONS 
       AND A TOTAL OF          7 INNER ITERATIONS.
    ------------------------------------------------

 NO OUTPUT CONTROL FOR STRESS PERIOD   17   TIME STEP   25
 
 SOLVING FOR HEAD 
                                                   Max.-Head-Change                         Max.-Flux-Residual
  Residual-Control   Outer-Iter.   Inner-Iter.     Column Row Layer    Maximum-Head-Change  Column Row Layer    Maximum-Flux-Residual          L2-NORM 
          0                 1           2             5    8     1       0.1060567207E-01       5    8    1         0.5656160456E+00      0.1469906635E+01
          0                 2           2             4    7     1      -0.1252919599E-01       5    8    1        -0.6764750914E+00      0.1653509459E+01
          0                 3           2             4    7     1       0.8531908116E-03       5    8    1         0.4735293730E-01      0.1157452333E+00
          0                 4           1             4    7     1      -0.3394926555E-04       5    8    1        -0.1936739418E-02      0.4733984983E-02

    ------------------------------------------------
       NWT REQUIRED            4 OUTER ITERATIONS 
       AND A TOTAL OF          7 INNER ITERATIONS.
    ------------------------------------------------

 NO OUTPUT CONTROL FOR STRESS PERIOD   17   TIME STEP   26
 
 SOLVING FOR HEAD 
                                                   Max.-Head-Change                         Max.-Flux-Residual
  Residual-Control   Outer-Iter.   Inner-Iter.     Column Row Layer    Maximum-Head-Change  Column Row Layer    Maximum-Flux-Residual          L2-NORM 
          0                 1           2             5    8     1       0.1066881801E-01       5    8    1         0.5690770007E+00      0.1474272387E+01
          0                 2           2             4    7     1      -0.1253375821E-01       5    8    1        -0.6768225540E+00      0.1654266702E+01
          0                 3           2             4    7     1       0.8535014832E-03       5    8    1         0.4737725934E-01      0.1157982529E+00
          0                 4           1             4    7     1      -0.3396162726E-04       5    8    1        -0.1937734184E-02      0.4736153282E-02

    ------------------------------------------------
       NWT REQUIRED            4 OUTER ITERATIONS 
       AND A TOTAL OF          7 INNER ITERATIONS.
    ------------------------------------------------

 NO OUTPUT CONTROL FOR STRESS PERIOD   17   TIME STEP   27
 
 SOLVING FOR HEAD 
                                                   Max.-Head-Change                         Max.-Flux-Residual
  Residual-Control   Outer-Iter.   Inner-Iter.     Column Row Layer    Maximum-Head-Change  Column Row Layer    Maximum-Flux-Residual          L2-NORM 
          0                 1           2             5    8     1       0.1072886302E-01       5    8    1         0.5723668731E+00      0.1478557200E+01
          0                 2           2             4    7     1      -0.1253830492E-01       5    8    1        -0.6771528559E+00      0.1654996128E+01
          0                 3           2             4    7     1       0.8538110995E-03       5    8    1         0.4740038016E-01      0.1158493177E+00
          0                 4           1             4    7     1      -0.3397394741E-04       5    8    1        -0.1938679833E-02      0.4738243401E-02

    ------------------------------------------------
       NWT REQUIRED            4 OUTER ITERATIONS 
       AND A TOTAL OF          7 INNER ITERATIONS.
    ------------------------------------------------

 NO OUTPUT CONTROL FOR STRESS PERIOD   17   TIME STEP   28
 
 SOLVING FOR HEAD 
                                                   Max.-Head-Change                         Max.-Flux-Residual
  Residual-Control   Outer-Iter.   Inner-Iter.     Column Row Layer    Maximum-Head-Change  Column Row Layer    Maximum-Flux-Residual          L2-NORM 
          0                 1           2             5    8     1       0.1078571052E-01       5    8    1         0.5754801896E+00      0.1482767508E+01
          0                 2           2             4    7     1      -0.1254282989E-01       5    8    1        -0.6774655020E+00      0.1655700589E+01
          0                 3           2             4    7     1       0.8541192343E-03       5    8    1         0.4742226510E-01      0.1158986393E+00
          0                 4           1             4    7     1      -0.3398620838E-04       5    8    1        -0.1939574931E-02      0.4740259598E-02

    ------------------------------------------------
       NWT REQUIRED            4 OUTER ITERATIONS 
       AND A TOTAL OF          7 INNER ITERATIONS.
    ------------------------------------------------

 NO OUTPUT CONTROL FOR STRESS PERIOD   17   TIME STEP   29
 
 SOLVING FOR HEAD 
                                                   Max.-Head-Change                         Max.-Flux-Residual
  Residual-Control   Outer-Iter.   Inner-Iter.     Column Row Layer    Maximum-Head-Change  Column Row Layer    Maximum-Flux-Residual          L2-NORM 
          0                 1           2             5    8     1       0.1083684504E-01       5    8    1         0.5784356043E+00      0.1524511338E+01
          0                 2           2             4    7     1      -0.1254733636E-01       5    8    1        -0.6777623546E+00      0.1656696967E+01
          0                 3           2             4    7     1       0.8544261088E-03       5    8    1         0.4744304494E-01      0.1159660768E+00
          0                 4           1             4    7     1      -0.3399841916E-04       5    8    1        -0.1940424820E-02      0.4742874300E-02

    ------------------------------------------------
       NWT REQUIRED            4 OUTER ITERATIONS 
       AND A TOTAL OF          7 INNER ITERATIONS.
    ------------------------------------------------

 NO OUTPUT CONTROL FOR STRESS PERIOD   17   TIME STEP   30



 STREAM LISTING     PERIOD     17   STEP       30

 LAYER ROW COL. STREAM  RCH.  FLOW INTO     FLOW TO   FLOW OUT OF   OVRLND.     DIRECT     STREAM       STREAM     STREAM     STREAM   STREAMBED  STREAMBED
                SEG.NO.  NO.  STRM. RCH.    AQUIFER    STRM. RCH.    RUNOFF     PRECIP       ET          HEAD       DEPTH      WIDTH   CONDCTNC.   GRADIENT

   1    1    1     1     1    6.5908E+01  3.9227E-01   6.5516E+01  0.000E+00  0.000E+00  0.000E+00  1.09464E+03  1.596E+00  1.897E+01  8.536E-02  1.532E+00
   1    2    2     1     2    6.5516E+01  6.0756E-01   6.4909E+01  0.000E+00  0.000E+00  0.000E+00  1.08965E+03  1.590E+00  1.891E+01  1.324E-01  1.530E+00
   1    3    3     1     3    6.4909E+01  5.1821E-01   6.4390E+01  0.000E+00  0.000E+00  0.000E+00  1.08400E+03  1.583E+00  1.884E+01  1.131E-01  1.528E+00
   1    3    4     1     4    6.4390E+01  4.7725E-01   6.3913E+01  0.000E+00  0.000E+00  0.000E+00  1.07899E+03  1.577E+00  1.879E+01  1.043E-01  1.526E+00
   1    4    5     2     1    6.1913E+01  3.9598E-01   6.1517E+01  0.000E+00  0.000E+00  0.000E+00  1.07401E+03  2.077E+00  1.200E+01  7.800E-02  1.692E+00
   1    5    6     2     2    6.1517E+01  3.0418E-01   6.1213E+01  0.000E+00  0.000E+00  0.000E+00  1.06858E+03  2.070E+00  1.200E+01  6.000E-02  1.690E+00
   1    6    6     2     3    6.1213E+01  3.0381E-01   6.0909E+01  0.000E+00  0.000E+00  0.000E+00  1.06386E+03  2.063E+00  1.200E+01  6.000E-02  1.688E+00
   1    7    6     2     4    6.0909E+01  3.0344E-01   6.0606E+01  0.000E+00  0.000E+00  0.000E+00  1.05913E+03  2.057E+00  1.200E+01  6.000E-02  1.686E+00
   1    8    6     2     5    6.0606E+01  3.0307E-01   6.0303E+01  0.000E+00  0.000E+00  0.000E+00  1.05441E+03  2.051E+00  1.200E+01  6.000E-02  1.684E+00
   1    3    5     3     1    2.0000E+00  2.8252E-01   1.7175E+00  0.000E+00  0.000E+00  0.000E+00  1.07555E+03  1.909E+00  9.636E+00  7.227E-02  1.955E+00
   1    3    6     3     2    1.7175E+00  2.4905E-01   1.4684E+00  0.000E+00  0.000E+00  0.000E+00  1.07264E+03  1.727E+00  8.909E+00  6.682E-02  1.864E+00
   1    3    7     3     3    1.4684E+00  1.9718E-01   1.2712E+00  0.000E+00  0.000E+00  0.000E+00  1.06987E+03  1.555E+00  8.218E+00  5.547E-02  1.777E+00
   1    4    8     3     4    1.2712E+00  2.2567E-01   1.0456E+00  0.000E+00  0.000E+00  0.000E+00  1.06682E+03  1.364E+00  7.455E+00  6.709E-02  1.682E+00
   1    5    8     3     5    1.0456E+00  1.5790E-01   8.8768E-01  0.000E+00  0.000E+00  0.000E+00  1.06362E+03  1.164E+00  6.655E+00  4.991E-02  1.582E+00
   1    6    8     3     6    8.8768E-01  5.5980E-02   8.3170E-01  0.000E+00  0.000E+00  0.000E+00  1.06158E+03  1.036E+00  6.145E+00  1.844E-02  1.518E+00
   1    5   10     4     1    1.0000E+01  9.0919E-02   9.9091E+00  0.000E+00  0.000E+00  0.000E+00  1.07836E+03  6.368E-01  1.000E+01  2.500E-02  1.212E+00
   1    5    9     4     2    9.9091E+00  1.8158E-01   9.7275E+00  0.000E+00  0.000E+00  0.000E+00  1.07154E+03  6.315E-01  1.000E+01  5.000E-02  1.211E+00
   1    6    8     4     3    9.7275E+00  1.2689E-01   9.6006E+00  0.000E+00  0.000E+00  0.000E+00  1.06381E+03  6.256E-01  1.000E+01  3.500E-02  1.209E+00
   1    6    8     5     1    1.0432E+01  2.2686E-01   1.0205E+01  0.000E+00  0.000E+00  0.000E+00  1.05868E+03  6.790E-01  1.542E+01  6.166E-02  1.226E+00
   1    7    7     5     2    1.0205E+01  2.7894E-01   9.9265E+00  0.000E+00  0.000E+00  0.000E+00  1.05417E+03  6.732E-01  1.519E+01  7.594E-02  1.224E+00
   1    8    7     5     3    9.9265E+00  1.9221E-01   9.7343E+00  0.000E+00  0.000E+00  0.000E+00  1.04992E+03  6.676E-01  1.497E+01  5.241E-02  1.223E+00
   1    8    6     5     4    9.7343E+00  1.3577E-01   9.5985E+00  0.000E+00  0.000E+00  0.000E+00  1.04691E+03  6.637E-01  1.482E+01  3.706E-02  1.221E+00
   1    9    6     6     1    6.9901E+01  3.1559E-01   6.9586E+01  0.000E+00  0.000E+00  0.000E+00  1.04499E+03  2.260E+00  1.200E+01  6.000E-02  1.753E+00
   1   10    7     6     2    6.9586E+01  3.1522E-01   6.9270E+01  0.000E+00  0.000E+00  0.000E+00  1.04044E+03  2.254E+00  1.200E+01  6.000E-02  1.751E+00
   1   11    7     6     3    6.9270E+01  3.1485E-01   6.8955E+01  0.000E+00  0.000E+00  0.000E+00  1.03588E+03  2.248E+00  1.200E+01  6.000E-02  1.749E+00
   1   12    7     6     4    6.8955E+01  3.1448E-01   6.8641E+01  0.000E+00  0.000E+00  0.000E+00  1.03133E+03  2.241E+00  1.200E+01  6.000E-02  1.747E+00
   1   13    7     6     5    6.8641E+01  2.4716E-02   6.8616E+01  0.000E+00  0.000E+00  0.000E+00  1.02815E+03  2.238E+00  1.200E+01  2.400E-02  3.433E-01
   1   14    9     7     1    1.5000E+02  1.3304E+00   1.4867E+02  0.000E+00  0.000E+00  0.000E+00  1.03987E+03  2.288E+00  5.529E+01  5.593E-01  7.929E-01
   1   13    8     7     2    1.4867E+02  1.8199E+00   1.4685E+02  0.000E+00  0.000E+00  0.000E+00  1.03478E+03  2.279E+00  5.526E+01  6.148E-01  9.868E-01
   1   13    7     7     3    1.4685E+02  1.4368E+00   1.4541E+02  0.000E+00  0.000E+00  0.000E+00  1.02969E+03  2.271E+00  5.522E+01  5.585E-01  8.576E-01
   1   13    6     8     1    2.1403E+02  1.0629E+00   2.1297E+02  0.000E+00  0.000E+00  0.000E+00  1.02509E+03  3.216E+00  4.662E+01  4.751E-01  7.457E-01
   1   13    5     8     2    2.1297E+02  2.5157E-01   2.1271E+02  0.000E+00  0.000E+00  0.000E+00  1.01884E+03  3.212E+00  4.657E+01  4.746E-01  1.767E-01
   1   13    4     8     3    2.1271E+02 -2.3287E+00   2.1504E+02  0.000E+00  0.000E+00  0.000E+00  1.01259E+03  3.218E+00  4.666E+01  4.754E+00 -1.633E-01
   1   13    3     8     4    2.1504E+02 -3.6194E+00   2.1866E+02  0.000E+00  0.000E+00  0.000E+00  1.00636E+03  3.234E+00  4.690E+01  4.779E+00 -2.524E-01
   1   13    2     8     5    2.1866E+02 -2.7137E+00   2.2138E+02  0.000E+00  0.000E+00  0.000E+00  1.00013E+03  3.252E+00  4.715E+01  4.805E+00 -1.882E-01
   1   13    1     8     6    2.2138E+02 -2.0835E+00   2.2346E+02  0.000E+00  0.000E+00  0.000E+00  9.95140E+02  3.265E+00  4.735E+01  2.895E+00 -2.399E-01





UNSATURATED ZONE PACKAGE VOLUMETRIC BUDGET FOR  TIME STEP    30 STRESS PERIOD   17
  ------------------------------------------------------------------------------



     CUMULATIVE VOLUMES      L**3       RATES FOR THIS TIME STEP      L**3/T
     ------------------                 ------------------------

           IN:                                      IN:
           ---                                      ---
        INFILTRATION =   449422832.1731          INFILTRATION =           4.5670

          OUT:                                     OUT:
          ----                                     ----
              UZF ET =   448663819.1527                UZF ET =           4.5675
        UZF RECHARGE =       73224.0000          UZF RECHARGE =       0.0000E+00

            IN - OUT =      685789.0204              IN - OUT =      -4.8894E-04

          STORAGE:                                 STORAGE:
          --------                                 --------
      STORAGE CHANGE =      685787.2444        STORAGE CHANGE =      -4.8891E-04

 PERCENT DISCREPANCY IS DIFFERENCE BETWEEN IN-OUT MINUS CHANGE IN STORAGE
 DIVIDED BY THE AVERAGE OF IN AND OUT TIMES 100

 PERCENT DISCREPANCY =           0.00     PERCENT DISCREPANCY =           0.00






1
  VOLUMETRIC BUDGET FOR AGRICULTURAL FIELDS AT  END OF TIME STEP   30, STRESS PERIOD  17
  ------------------------------------------------------------------------------

     CUMULATIVE VOLUMES      L**3       RATES FOR THIS TIME STEP      L**3/T
     ------------------                 ------------------------

           IN:                                      IN:
           ---                                      ---
               AG WELLS  =   413686400.0000                 AG WELLS  =           3.7195
      DIVERSION SEGMENTS =           0.0000        DIVERSION SEGMENTS =           0.0000
       IRRIGATION PONDS  =           0.0000         IRRIGATION PONDS  =           0.0000
           GW IRRIGATION =           0.0000             GW IRRIGATION =           0.0000
           SW IRRIGATION =           0.0000             SW IRRIGATION =           0.0000
        SYSTEM LOSSES GW =           0.0000          SYSTEM LOSSES GW =           0.0000
        SYSTEM LOSSES SW =           0.0000          SYSTEM LOSSES SW =           0.0000

                TOTAL IN =   413686400.0000                  TOTAL IN =           3.7195

          OUT:                                     OUT:
          ----                                     ----
               AG WELLS  =           0.0000                 AG WELLS  =           0.0000
      DIVERSION SEGMENTS =           0.0000        DIVERSION SEGMENTS =           0.0000
       IRRIGATION PONDS  =           0.0000         IRRIGATION PONDS  =           0.0000
           GW IRRIGATION =   413686400.0000             GW IRRIGATION =           3.7195
           SW IRRIGATION =           0.0000             SW IRRIGATION =           0.0000
        SYSTEM LOSSES GW =           0.0000          SYSTEM LOSSES GW =           0.0000
        SYSTEM LOSSES SW =           0.0000          SYSTEM LOSSES SW =           0.0000

               TOTAL OUT =   413686400.0000                 TOTAL OUT =           3.7195

                IN - OUT =           0.0000                  IN - OUT =           0.0000

     PERCENT DISCREPANCY =           0.00         PERCENT DISCREPANCY =           0.00



1
  VOLUMETRIC BUDGET FOR ENTIRE MODEL AT END OF TIME STEP   30, STRESS PERIOD  17
  ------------------------------------------------------------------------------

     CUMULATIVE VOLUMES      L**3       RATES FOR THIS TIME STEP      L**3/T
     ------------------                 ------------------------

           IN:                                      IN:
           ---                                      ---
             STORAGE     =   584392128.0000               STORAGE     =           3.4622
       CONSTANT HEAD     =           0.0000         CONSTANT HEAD     =           0.0000
     HEAD DEP BOUNDS     =    12034717.0000       HEAD DEP BOUNDS     =           0.2854
      STREAM LEAKAGE     =   527366368.0000        STREAM LEAKAGE     =          13.1936
        UZF RECHARGE     =       73223.9531          UZF RECHARGE     =           0.0000
               GW ET     =           0.0000                 GW ET     =           0.0000
     SURFACE LEAKAGE     =           0.0000       SURFACE LEAKAGE     =           0.0000
           AG WELLS      =           0.0000             AG WELLS      =           0.0000

                TOTAL IN =  1123866368.0000                  TOTAL IN =          16.9412

          OUT:                                     OUT:
          ----                                     ----
             STORAGE     =   248657120.0000               STORAGE     =           1.9307
       CONSTANT HEAD     =           0.0000         CONSTANT HEAD     =           0.0000
     HEAD DEP BOUNDS     =    12416573.0000       HEAD DEP BOUNDS     =           0.2987
      STREAM LEAKAGE     =   434551104.0000        STREAM LEAKAGE     =          10.7452
        UZF RECHARGE     =           0.0000          UZF RECHARGE     =           0.0000
               GW ET     =    14561533.0000                 GW ET     =           0.2470
     SURFACE LEAKAGE     =           0.0000       SURFACE LEAKAGE     =           0.0000
           AG WELLS      =   413686400.0000             AG WELLS      =           3.7195

               TOTAL OUT =  1123872768.0000                 TOTAL OUT =          16.9410

                IN - OUT =       -6400.0000                  IN - OUT =       1.4877E-04

     PERCENT DISCREPANCY =          -0.00         PERCENT DISCREPANCY =           0.00






         TIME SUMMARY AT END OF TIME STEP   30 IN STRESS PERIOD   17
                    SECONDS     MINUTES      HOURS       DAYS        YEARS
                    -----------------------------------------------------------
   TIME STEP LENGTH  87667.      1461.1      24.352      1.0147     2.77799E-03
 STRESS PERIOD TIME 2.63000E+06  43833.      730.56      30.440     8.33397E-02
         TOTAL TIME 4.21664E+07 7.02774E+05  11713.      488.04      1.3362    
1
1
                            STRESS PERIOD NO.   18, LENGTH =   2630000.    
                            -----------------------------------------------

                              NUMBER OF TIME STEPS =    30

                               MULTIPLIER FOR DELT =     1.000

                            INITIAL TIME STEP SIZE =   87666.66    

 REUSING NON-PARAMETER GHB CELLS FROM LAST STRESS PERIOD

      2 GHB CELLS

 REUSING STREAM SEGMENT DATA FROM LAST STRESS PERIOD



            AREAL INFILTRATION RATE
 READING ON UNIT   19 WITH FORMAT: (FREE)              

            1           2           3           4           5           6           7           8           9          10
 ........................................................................................................................
   1   1.0000E-10  2.0000E-10   0.000       0.000       0.000       0.000       0.000       0.000       0.000       0.000    
   2   2.0000E-10  1.0000E-10  2.0000E-10   0.000       0.000      8.0000E-10  8.0000E-10  5.0000E-10   0.000       0.000    
   3    0.000      5.0000E-10  1.0000E-10  1.0000E-10  8.0000E-10  8.0000E-10  5.0000E-10  5.0000E-10   0.000       0.000    
   4   8.0000E-10  5.0000E-10  1.0000E-10  1.0000E-10  1.0000E-10  1.0000E-10  1.0000E-10  1.0000E-10  2.0000E-10   0.000    
   5   8.0000E-10  5.0000E-10  1.0000E-10  1.0000E-10  1.0000E-10  1.0000E-10  1.0000E-10  1.0000E-10  1.0000E-10  1.0000E-10
   6   8.0000E-10  5.0000E-10  5.0000E-10  2.0000E-10  2.0000E-10  1.0000E-10  1.0000E-10  1.0000E-10  1.0000E-10  5.0000E-10
   7   8.0000E-10  5.0000E-10  5.0000E-10  2.0000E-10  2.0000E-10  1.0000E-10  1.0000E-10  2.0000E-10  2.0000E-10   0.000    
   8    0.000      5.0000E-10  5.0000E-10  2.0000E-10  2.0000E-10  1.0000E-10  1.0000E-10  2.0000E-10  5.0000E-10   0.000    
   9    0.000      5.0000E-10  5.0000E-10  2.0000E-10  2.0000E-10  1.0000E-10  1.0000E-10  2.0000E-10  5.0000E-10   0.000    
  10    0.000      5.0000E-10  5.0000E-10  2.0000E-10  2.0000E-10  1.0000E-10  1.0000E-10  2.0000E-10  5.0000E-10  8.0000E-10
  11    0.000      1.0000E-10  1.0000E-10  1.0000E-10  1.0000E-10  1.0000E-10  1.0000E-10  2.0000E-10  5.0000E-10   0.000    
  12   1.0000E-10  1.0000E-10  1.0000E-10  1.0000E-10  1.0000E-10  1.0000E-10  1.0000E-10  1.0000E-10  2.0000E-10   0.000    
  13   1.0000E-10  1.0000E-10  2.0000E-10  2.0000E-10  2.0000E-10  2.0000E-10  2.0000E-10  1.0000E-10  1.0000E-10   0.000    
  14    0.000      2.0000E-10  5.0000E-10  5.0000E-10  5.0000E-10  5.0000E-10  5.0000E-10  2.0000E-10  1.0000E-10   0.000    
  15    0.000       0.000      8.0000E-10  8.0000E-10  8.0000E-10  8.0000E-10   0.000       0.000       0.000       0.000    

                  ET RATE =  5.000000E-08

 USING ET EXTINCTION DEPTH FROM PREVIOUS STRESS PERIOD. CURRENT PERIOD IS:      18

 USING EXTINCTION WATER CONTENT FROM PREVIOUS STRESS PERIOD. CURRENT PERIOD IS:      18

 USING AIR ENTRY PRESSURE FROM PREVIOUS STRESS PERIOD. CURRENT PERIOD IS:      18

 USING ROOT PRESSURE HEAD FROM PREVIOUS STRESS PERIOD. CURRENT PERIOD IS:      18

 USING ROOT ACTIVITY FROM PREVIOUS STRESS PERIOD. CURRENT PERIOD IS:      18

 PROCESSING AG STRESS PERIOD DATA

 READING AG STRESS PERIOD DATA

 READING IRRIGATION WELL

 NO IRRPOND OR REUSING IRRPOND DATA FROM LAST STRESS PERIOD

 END PROCESSING AG STRESS PERIOD DATA OPTIONS
 
 SOLVING FOR HEAD 
                                                   Max.-Head-Change                         Max.-Flux-Residual
  Residual-Control   Outer-Iter.   Inner-Iter.     Column Row Layer    Maximum-Head-Change  Column Row Layer    Maximum-Flux-Residual          L2-NORM 
          0                 1           2             4    7     1      -0.1363703390E-01       4    7    1        -0.7139892146E+00      0.1869489646E+01
          0                 2           2             4    7     1       0.1326510610E-02       4    7    1         0.7139886760E-01      0.1864245897E+00
          0                 3           1             4    7     1      -0.9033046316E-04       4    7    1        -0.4997923394E-02      0.1300203465E-01

    ------------------------------------------------
       NWT REQUIRED            3 OUTER ITERATIONS 
       AND A TOTAL OF          5 INNER ITERATIONS.
    ------------------------------------------------

 NO OUTPUT CONTROL FOR STRESS PERIOD   18   TIME STEP    1
 
 SOLVING FOR HEAD 
                                                   Max.-Head-Change                         Max.-Flux-Residual
  Residual-Control   Outer-Iter.   Inner-Iter.     Column Row Layer    Maximum-Head-Change  Column Row Layer    Maximum-Flux-Residual          L2-NORM 
          0                 1           2             5    8     1       0.1126094081E-01       5    8    1         0.6018059246E+00      0.1597226365E+01
          0                 2           2             4    7     1      -0.2420606766E-01       5    8    1        -0.1305071453E+01      0.3191248101E+01
          0                 3           2             4    7     1       0.1648339855E-02       5    8    1         0.9135378209E-01      0.2233836952E+00
          0                 4           1             4    7     1      -0.6558900259E-04       5    8    1        -0.3736380737E-02      0.9136264021E-02

    ------------------------------------------------
       NWT REQUIRED            4 OUTER ITERATIONS 
       AND A TOTAL OF          7 INNER ITERATIONS.
    ------------------------------------------------

 NO OUTPUT CONTROL FOR STRESS PERIOD   18   TIME STEP    2
 
 SOLVING FOR HEAD 
                                                   Max.-Head-Change                         Max.-Flux-Residual
  Residual-Control   Outer-Iter.   Inner-Iter.     Column Row Layer    Maximum-Head-Change  Column Row Layer    Maximum-Flux-Residual          L2-NORM 
          0                 1           2             5    8     1       0.1161398694E-01       5    8    1         0.6212141881E+00      0.1605437629E+01
          0                 2           2             4    7     1      -0.2421712817E-01       5    8    1        -0.1307013378E+01      0.3194509184E+01
          0                 3           2             4    7     1       0.1649093061E-02       5    8    1         0.9148971195E-01      0.2236124152E+00
          0                 4           1             4    7     1      -0.6561897318E-04       5    8    1        -0.3741940294E-02      0.9145649456E-02

    ------------------------------------------------
       NWT REQUIRED            4 OUTER ITERATIONS 
       AND A TOTAL OF          7 INNER ITERATIONS.
    ------------------------------------------------

 NO OUTPUT CONTROL FOR STRESS PERIOD   18   TIME STEP    3
 
 SOLVING FOR HEAD 
                                                   Max.-Head-Change                         Max.-Flux-Residual
  Residual-Control   Outer-Iter.   Inner-Iter.     Column Row Layer    Maximum-Head-Change  Column Row Layer    Maximum-Flux-Residual          L2-NORM 
          0                 1           2             5    8     1       0.1194808629E-01       5    8    1         0.6395659001E+00      0.1617821448E+01
          0                 2           2             4    7     1      -0.2422858022E-01       5    8    1        -0.1308849408E+01      0.3197676112E+01
          0                 3           2             4    7     1       0.1649787971E-02       5    8    1         0.9161822952E-01      0.2236724192E+00
          0                 4           1             4    7     1      -0.6564662406E-04       5    8    1        -0.3747196697E-02      0.9148139195E-02

    ------------------------------------------------
       NWT REQUIRED            4 OUTER ITERATIONS 
       AND A TOTAL OF          7 INNER ITERATIONS.
    ------------------------------------------------

 NO OUTPUT CONTROL FOR STRESS PERIOD   18   TIME STEP    4
 
 SOLVING FOR HEAD 
                                                   Max.-Head-Change                         Max.-Flux-Residual
  Residual-Control   Outer-Iter.   Inner-Iter.     Column Row Layer    Maximum-Head-Change  Column Row Layer    Maximum-Flux-Residual          L2-NORM 
          0                 1           2             5    8     1       0.1226416791E-01       5    8    1         0.6569145566E+00      0.1633148045E+01
          0                 2           2             4    7     1      -0.2424053866E-01       5    8    1        -0.1310585251E+01      0.3200734845E+01
          0                 3           2             4    7     1       0.1650687363E-02       5    8    1         0.9173973485E-01      0.2240489971E+00
          0                 4           1             4    7     1      -0.6568241136E-04       5    8    1        -0.3752166294E-02      0.9163558829E-02

    ------------------------------------------------
       NWT REQUIRED            4 OUTER ITERATIONS 
       AND A TOTAL OF          7 INNER ITERATIONS.
    ------------------------------------------------

 NO OUTPUT CONTROL FOR STRESS PERIOD   18   TIME STEP    5
 
 SOLVING FOR HEAD 
                                                   Max.-Head-Change                         Max.-Flux-Residual
  Residual-Control   Outer-Iter.   Inner-Iter.     Column Row Layer    Maximum-Head-Change  Column Row Layer    Maximum-Flux-Residual          L2-NORM 
          0                 1           2             5    8     1       0.1256351611E-01       5    8    1         0.6733368030E+00      0.1650638470E+01
          0                 2           2             4    7     1      -0.2425261100E-01       5    8    1        -0.1312228451E+01      0.3203696485E+01
          0                 3           2             4    7     1       0.1651509465E-02       5    8    1         0.9185475493E-01      0.2242565174E+00
          0                 4           1             4    7     1      -0.6571512337E-04       5    8    1        -0.3756870624E-02      0.9172041090E-02

    ------------------------------------------------
       NWT REQUIRED            4 OUTER ITERATIONS 
       AND A TOTAL OF          7 INNER ITERATIONS.
    ------------------------------------------------

 NO OUTPUT CONTROL FOR STRESS PERIOD   18   TIME STEP    6
 
 SOLVING FOR HEAD 
                                                   Max.-Head-Change                         Max.-Flux-Residual
  Residual-Control   Outer-Iter.   Inner-Iter.     Column Row Layer    Maximum-Head-Change  Column Row Layer    Maximum-Flux-Residual          L2-NORM 
          0                 1           2             5    8     1       0.1284737617E-01       5    8    1         0.6888965224E+00      0.1669679594E+01
          0                 2           2             4    7     1      -0.2426494432E-01       5    8    1        -0.1313785399E+01      0.3206568762E+01
          0                 3           2             4    7     1       0.1652349336E-02       5    8    1         0.9196373754E-01      0.2244577664E+00
          0                 4           1             4    7     1      -0.6574854273E-04       5    8    1        -0.3761328047E-02      0.9180296062E-02

    ------------------------------------------------
       NWT REQUIRED            4 OUTER ITERATIONS 
       AND A TOTAL OF          7 INNER ITERATIONS.
    ------------------------------------------------

 NO OUTPUT CONTROL FOR STRESS PERIOD   18   TIME STEP    7
 
 SOLVING FOR HEAD 
                                                   Max.-Head-Change                         Max.-Flux-Residual
  Residual-Control   Outer-Iter.   Inner-Iter.     Column Row Layer    Maximum-Head-Change  Column Row Layer    Maximum-Flux-Residual          L2-NORM 
          0                 1           2             5    8     1       0.1311665805E-01       5    8    1         0.7036453344E+00      0.1689763189E+01
          0                 2           2             4    7     1      -0.2427750061E-01       5    8    1        -0.1315261135E+01      0.3209353170E+01
          0                 3           2             4    7     1       0.1653204389E-02       5    8    1         0.9206703558E-01      0.2246528060E+00
          0                 4           1             4    7     1      -0.6578256570E-04       5    8    1        -0.3765552954E-02      0.9188273984E-02

    ------------------------------------------------
       NWT REQUIRED            4 OUTER ITERATIONS 
       AND A TOTAL OF          7 INNER ITERATIONS.
    ------------------------------------------------

 NO OUTPUT CONTROL FOR STRESS PERIOD   18   TIME STEP    8
 
 SOLVING FOR HEAD 
                                                   Max.-Head-Change                         Max.-Flux-Residual
  Residual-Control   Outer-Iter.   Inner-Iter.     Column Row Layer    Maximum-Head-Change  Column Row Layer    Maximum-Flux-Residual          L2-NORM 
          0                 1           2             5    8     1       0.1337234401E-01       5    8    1         0.7176382995E+00      0.1710490844E+01
          0                 2           2             4    7     1      -0.2429024972E-01       5    8    1        -0.1316661404E+01      0.3212051201E+01
          0                 3           2             4    7     1       0.1654072572E-02       5    8    1         0.9216505123E-01      0.2248363289E+00
          0                 4           1             4    7     1      -0.6581711192E-04       5    8    1        -0.3769561817E-02      0.9195695174E-02

    ------------------------------------------------
       NWT REQUIRED            4 OUTER ITERATIONS 
       AND A TOTAL OF          7 INNER ITERATIONS.
    ------------------------------------------------

 NO OUTPUT CONTROL FOR STRESS PERIOD   18   TIME STEP    9
 
 SOLVING FOR HEAD 
                                                   Max.-Head-Change                         Max.-Flux-Residual
  Residual-Control   Outer-Iter.   Inner-Iter.     Column Row Layer    Maximum-Head-Change  Column Row Layer    Maximum-Flux-Residual          L2-NORM 
          0                 1           2             5    8     1       0.1361520118E-01       5    8    1         0.7309184686E+00      0.1731589439E+01
          0                 2           2             4    7     1      -0.2430315668E-01       5    8    1        -0.1317990274E+01      0.3214667301E+01
          0                 3           2             4    7     1       0.1654951500E-02       5    8    1         0.9225806908E-01      0.2250194626E+00
          0                 4           1             4    7     1      -0.6585208481E-04       5    8    1        -0.3773366267E-02      0.9203133820E-02

    ------------------------------------------------
       NWT REQUIRED            4 OUTER ITERATIONS 
       AND A TOTAL OF          7 INNER ITERATIONS.
    ------------------------------------------------

 NO OUTPUT CONTROL FOR STRESS PERIOD   18   TIME STEP   10
 
 SOLVING FOR HEAD 
                                                   Max.-Head-Change                         Max.-Flux-Residual
  Residual-Control   Outer-Iter.   Inner-Iter.     Column Row Layer    Maximum-Head-Change  Column Row Layer    Maximum-Flux-Residual          L2-NORM 
          0                 1           2             5    8     1       0.1384636017E-01       5    8    1         0.7435492569E+00      0.1752824109E+01
          0                 2           2             4    7     1      -0.2431619389E-01       5    8    1        -0.1319254206E+01      0.3217202581E+01
          0                 3           2             4    7     1       0.1655839298E-02       5    8    1         0.9233885159E-01      0.2251915255E+00
          0                 4           1             4    7     1      -0.6588741114E-04       5    8    1        -0.3775924409E-02      0.9210043092E-02

    ------------------------------------------------
       NWT REQUIRED            4 OUTER ITERATIONS 
       AND A TOTAL OF          7 INNER ITERATIONS.
    ------------------------------------------------

 NO OUTPUT CONTROL FOR STRESS PERIOD   18   TIME STEP   11
 
 SOLVING FOR HEAD 
                                                   Max.-Head-Change                         Max.-Flux-Residual
  Residual-Control   Outer-Iter.   Inner-Iter.     Column Row Layer    Maximum-Head-Change  Column Row Layer    Maximum-Flux-Residual          L2-NORM 
          0                 1           2             5    8     1       0.1406616023E-01       5    8    1         0.7555498106E+00      0.1774045908E+01
          0                 2           2             4    7     1      -0.2432932366E-01       5    8    1        -0.1320455232E+01      0.3219661833E+01
          0                 3           2             4    7     1       0.1656733397E-02       5    8    1         0.9241461117E-01      0.2253578014E+00
          0                 4           1             4    7     1      -0.6592298821E-04       5    8    1        -0.3778216491E-02      0.9216668085E-02

    ------------------------------------------------
       NWT REQUIRED            4 OUTER ITERATIONS 
       AND A TOTAL OF          7 INNER ITERATIONS.
    ------------------------------------------------

 NO OUTPUT CONTROL FOR STRESS PERIOD   18   TIME STEP   12
 
 SOLVING FOR HEAD 
                                                   Max.-Head-Change                         Max.-Flux-Residual
  Residual-Control   Outer-Iter.   Inner-Iter.     Column Row Layer    Maximum-Head-Change  Column Row Layer    Maximum-Flux-Residual          L2-NORM 
          0                 1           2             5    8     1       0.1427562488E-01       5    8    1         0.7669771945E+00      0.1795118558E+01
          0                 2           2             4    7     1      -0.2434254309E-01       5    8    1        -0.1321598820E+01      0.3222046172E+01
          0                 3           2             4    7     1       0.1657633600E-02       5    8    1         0.9249511808E-01      0.2255246614E+00
          0                 4           1             4    7     1      -0.6595880821E-04       5    8    1        -0.3781553684E-02      0.9223408792E-02

    ------------------------------------------------
       NWT REQUIRED            4 OUTER ITERATIONS 
       AND A TOTAL OF          7 INNER ITERATIONS.
    ------------------------------------------------

 NO OUTPUT CONTROL FOR STRESS PERIOD   18   TIME STEP   13
 
 SOLVING FOR HEAD 
                                                   Max.-Head-Change                         Max.-Flux-Residual
  Residual-Control   Outer-Iter.   Inner-Iter.     Column Row Layer    Maximum-Head-Change  Column Row Layer    Maximum-Flux-Residual          L2-NORM 
          0                 1           2             5    8     1       0.1447541904E-01       5    8    1         0.7778687802E+00      0.1815961989E+01
          0                 2           2             4    7     1      -0.2435581703E-01       5    8    1        -0.1322688829E+01      0.3224359160E+01
          0                 3           2             4    7     1       0.1658537514E-02       5    8    1         0.9257184774E-01      0.2256843982E+00
          0                 4           1             4    7     1      -0.6599477545E-04       5    8    1        -0.3784733797E-02      0.9229812714E-02

    ------------------------------------------------
       NWT REQUIRED            4 OUTER ITERATIONS 
       AND A TOTAL OF          7 INNER ITERATIONS.
    ------------------------------------------------

 NO OUTPUT CONTROL FOR STRESS PERIOD   18   TIME STEP   14
 
 SOLVING FOR HEAD 
                                                   Max.-Head-Change                         Max.-Flux-Residual
  Residual-Control   Outer-Iter.   Inner-Iter.     Column Row Layer    Maximum-Head-Change  Column Row Layer    Maximum-Flux-Residual          L2-NORM 
          0                 1           2             5    8     1       0.1466587019E-01       5    8    1         0.7882432097E+00      0.1836498744E+01
          0                 2           2             4    7     1      -0.2436912428E-01       5    8    1        -0.1323727121E+01      0.3226602910E+01
          0                 3           2             4    7     1       0.1659443695E-02       5    8    1         0.9264493288E-01      0.2258414797E+00
          0                 4           1             4    7     1      -0.6603083342E-04       5    8    1        -0.3787762445E-02      0.9236164859E-02

    ------------------------------------------------
       NWT REQUIRED            4 OUTER ITERATIONS 
       AND A TOTAL OF          7 INNER ITERATIONS.
    ------------------------------------------------

 NO OUTPUT CONTROL FOR STRESS PERIOD   18   TIME STEP   15
 
 SOLVING FOR HEAD 
                                                   Max.-Head-Change                         Max.-Flux-Residual
  Residual-Control   Outer-Iter.   Inner-Iter.     Column Row Layer    Maximum-Head-Change  Column Row Layer    Maximum-Flux-Residual          L2-NORM 
          0                 1           2             5    8     1       0.1484771080E-01       5    8    1         0.7981411083E+00      0.1856673410E+01
          0                 2           2             4    7     1      -0.2438244415E-01       5    8    1        -0.1324717759E+01      0.3228778982E+01
          0                 3           2             4    7     1       0.1660350735E-02       5    8    1         0.9271465857E-01      0.2259938448E+00
          0                 4           1             4    7     1      -0.6606692523E-04       5    8    1        -0.3790651412E-02      0.9242333535E-02

    ------------------------------------------------
       NWT REQUIRED            4 OUTER ITERATIONS 
       AND A TOTAL OF          7 INNER ITERATIONS.
    ------------------------------------------------

 NO OUTPUT CONTROL FOR STRESS PERIOD   18   TIME STEP   16
 
 SOLVING FOR HEAD 
                                                   Max.-Head-Change                         Max.-Flux-Residual
  Residual-Control   Outer-Iter.   Inner-Iter.     Column Row Layer    Maximum-Head-Change  Column Row Layer    Maximum-Flux-Residual          L2-NORM 
          0                 1           2             5    8     1       0.1502133676E-01       5    8    1         0.8075846888E+00      0.1876480916E+01
          0                 2           2             4    7     1      -0.2439575927E-01       5    8    1        -0.1325662965E+01      0.3230892827E+01
          0                 3           2             4    7     1       0.1661257449E-02       5    8    1         0.9278118254E-01      0.2261418992E+00
          0                 4           1             4    7     1      -0.6610300415E-04       5    8    1        -0.3793407327E-02      0.9248332632E-02

    ------------------------------------------------
       NWT REQUIRED            4 OUTER ITERATIONS 
       AND A TOTAL OF          7 INNER ITERATIONS.
    ------------------------------------------------

 NO OUTPUT CONTROL FOR STRESS PERIOD   18   TIME STEP   17
 
 SOLVING FOR HEAD 
                                                   Max.-Head-Change                         Max.-Flux-Residual
  Residual-Control   Outer-Iter.   Inner-Iter.     Column Row Layer    Maximum-Head-Change  Column Row Layer    Maximum-Flux-Residual          L2-NORM 
          0                 1           2             5    8     1       0.1518754414E-01       5    8    1         0.8166181222E+00      0.1895881556E+01
          0                 2           2             4    7     1      -0.2440903951E-01       5    8    1        -0.1326567155E+01      0.3232944864E+01
          0                 3           2             4    7     1       0.1662161788E-02       5    8    1         0.9284481510E-01      0.2262856456E+00
          0                 4           1             4    7     1      -0.6613898878E-04       5    8    1        -0.3796042979E-02      0.9254164944E-02

    ------------------------------------------------
       NWT REQUIRED            4 OUTER ITERATIONS 
       AND A TOTAL OF          7 INNER ITERATIONS.
    ------------------------------------------------

 NO OUTPUT CONTROL FOR STRESS PERIOD   18   TIME STEP   18
 
 SOLVING FOR HEAD 
                                                   Max.-Head-Change                         Max.-Flux-Residual
  Residual-Control   Outer-Iter.   Inner-Iter.     Column Row Layer    Maximum-Head-Change  Column Row Layer    Maximum-Flux-Residual          L2-NORM 
          0                 1           2             5    8     1       0.1534635331E-01       5    8    1         0.8252432752E+00      0.1914863401E+01
          0                 2           2             4    7     1      -0.2442229602E-01       5    8    1        -0.1327430517E+01      0.3234937809E+01
          0                 3           2             4    7     1       0.1663064510E-02       5    8    1         0.9290557065E-01      0.2264252696E+00
          0                 4           1             4    7     1      -0.6617490859E-04       5    8    1        -0.3798559119E-02      0.9259833125E-02

    ------------------------------------------------
       NWT REQUIRED            4 OUTER ITERATIONS 
       AND A TOTAL OF          7 INNER ITERATIONS.
    ------------------------------------------------

 NO OUTPUT CONTROL FOR STRESS PERIOD   18   TIME STEP   19
 
 SOLVING FOR HEAD 
                                                   Max.-Head-Change                         Max.-Flux-Residual
  Residual-Control   Outer-Iter.   Inner-Iter.     Column Row Layer    Maximum-Head-Change  Column Row Layer    Maximum-Flux-Residual          L2-NORM 
          0                 1           2             5    8     1       0.1549849695E-01       5    8    1         0.8335006113E+00      0.1933415932E+01
          0                 2           2             4    7     1      -0.2443550080E-01       5    8    1        -0.1328257096E+01      0.3236873728E+01
          0                 3           2             4    7     1       0.1663963709E-02       5    8    1         0.9296373445E-01      0.2265609266E+00
          0                 4           1             4    7     1      -0.6621068863E-04       5    8    1        -0.3800967602E-02      0.9265489735E-02

    ------------------------------------------------
       NWT REQUIRED            4 OUTER ITERATIONS 
       AND A TOTAL OF          7 INNER ITERATIONS.
    ------------------------------------------------

 NO OUTPUT CONTROL FOR STRESS PERIOD   18   TIME STEP   20
 
 SOLVING FOR HEAD 
                                                   Max.-Head-Change                         Max.-Flux-Residual
  Residual-Control   Outer-Iter.   Inner-Iter.     Column Row Layer    Maximum-Head-Change  Column Row Layer    Maximum-Flux-Residual          L2-NORM 
          0                 1           2             5    8     1       0.1564438026E-01       5    8    1         0.8414123548E+00      0.1951540303E+01
          0                 2           2             4    7     1      -0.2444864145E-01       5    8    1        -0.1329049116E+01      0.3238755124E+01
          0                 3           2             4    7     1       0.1664858540E-02       5    8    1         0.9301946174E-01      0.2266927779E+00
          0                 4           1             4    7     1      -0.6624629530E-04       5    8    1        -0.3803274746E-02      0.9270711443E-02

    ------------------------------------------------
       NWT REQUIRED            4 OUTER ITERATIONS 
       AND A TOTAL OF          7 INNER ITERATIONS.
    ------------------------------------------------

 NO OUTPUT CONTROL FOR STRESS PERIOD   18   TIME STEP   21
 
 SOLVING FOR HEAD 
                                                   Max.-Head-Change                         Max.-Flux-Residual
  Residual-Control   Outer-Iter.   Inner-Iter.     Column Row Layer    Maximum-Head-Change  Column Row Layer    Maximum-Flux-Residual          L2-NORM 
          0                 1           2             5    8     1       0.1578408571E-01       5    8    1         0.8489837525E+00      0.1969235422E+01
          0                 2           2             4    7     1      -0.2446170363E-01       5    8    1        -0.1329806981E+01      0.3240583352E+01
          0                 3           2             4    7     1       0.1665748026E-02       5    8    1         0.9307278268E-01      0.2268209219E+00
          0                 4           1             4    7     1      -0.6628168829E-04       5    8    1        -0.3805481949E-02      0.9275929054E-02

    ------------------------------------------------
       NWT REQUIRED            4 OUTER ITERATIONS 
       AND A TOTAL OF          7 INNER ITERATIONS.
    ------------------------------------------------

 NO OUTPUT CONTROL FOR STRESS PERIOD   18   TIME STEP   22
 
 SOLVING FOR HEAD 
                                                   Max.-Head-Change                         Max.-Flux-Residual
  Residual-Control   Outer-Iter.   Inner-Iter.     Column Row Layer    Maximum-Head-Change  Column Row Layer    Maximum-Flux-Residual          L2-NORM 
          0                 1           2             5    8     1       0.1591826570E-01       5    8    1         0.8562506014E+00      0.1986509226E+01
          0                 2           2             4    7     1      -0.2447468137E-01       5    8    1        -0.1330534511E+01      0.3242361689E+01
          0                 3           2             4    7     1       0.1666631762E-02       5    8    1         0.9312396520E-01      0.2269455778E+00
          0                 4           1             4    7     1      -0.6631685297E-04       5    8    1        -0.3807600227E-02      0.9281006737E-02

    ------------------------------------------------
       NWT REQUIRED            4 OUTER ITERATIONS 
       AND A TOTAL OF          7 INNER ITERATIONS.
    ------------------------------------------------

 NO OUTPUT CONTROL FOR STRESS PERIOD   18   TIME STEP   23
 
 SOLVING FOR HEAD 
                                                   Max.-Head-Change                         Max.-Flux-Residual
  Residual-Control   Outer-Iter.   Inner-Iter.     Column Row Layer    Maximum-Head-Change  Column Row Layer    Maximum-Flux-Residual          L2-NORM 
          0                 1           2             5    8     1       0.1604695230E-01       5    8    1         0.8632152094E+00      0.2003361407E+01
          0                 2           2             4    7     1      -0.2448756273E-01       5    8    1        -0.1331231815E+01      0.3244090848E+01
          0                 3           2             4    7     1       0.1667508934E-02       5    8    1         0.9317301880E-01      0.2270667967E+00
          0                 4           1             4    7     1      -0.6635175667E-04       5    8    1        -0.3809630166E-02      0.9285948032E-02

    ------------------------------------------------
       NWT REQUIRED            4 OUTER ITERATIONS 
       AND A TOTAL OF          7 INNER ITERATIONS.
    ------------------------------------------------

 NO OUTPUT CONTROL FOR STRESS PERIOD   18   TIME STEP   24
 
 SOLVING FOR HEAD 
                                                   Max.-Head-Change                         Max.-Flux-Residual
  Residual-Control   Outer-Iter.   Inner-Iter.     Column Row Layer    Maximum-Head-Change  Column Row Layer    Maximum-Flux-Residual          L2-NORM 
          0                 1           2             5    8     1       0.1617074854E-01       5    8    1         0.8699107606E+00      0.2019803015E+01
          0                 2           2             4    7     1      -0.2450033669E-01       5    8    1        -0.1331902095E+01      0.3245773015E+01
          0                 3           2             4    7     1       0.1668378793E-02       5    8    1         0.9322016751E-01      0.2271847336E+00
          0                 4           1             4    7     1      -0.6638636909E-04       5    8    1        -0.3811580898E-02      0.9290755230E-02

    ------------------------------------------------
       NWT REQUIRED            4 OUTER ITERATIONS 
       AND A TOTAL OF          7 INNER ITERATIONS.
    ------------------------------------------------

 NO OUTPUT CONTROL FOR STRESS PERIOD   18   TIME STEP   25
 
 SOLVING FOR HEAD 
                                                   Max.-Head-Change                         Max.-Flux-Residual
  Residual-Control   Outer-Iter.   Inner-Iter.     Column Row Layer    Maximum-Head-Change  Column Row Layer    Maximum-Flux-Residual          L2-NORM 
          0                 1           2             5    8     1       0.1628964675E-01       5    8    1         0.8763369920E+00      0.2035831017E+01
          0                 2           2             4    7     1      -0.2451299728E-01       5    8    1        -0.1332545442E+01      0.3247408932E+01
          0                 3           2             4    7     1       0.1669240931E-02       5    8    1         0.9326541862E-01      0.2272994338E+00
          0                 4           1             4    7     1      -0.6642067412E-04       5    8    1        -0.3813452814E-02      0.9295436596E-02

    ------------------------------------------------
       NWT REQUIRED            4 OUTER ITERATIONS 
       AND A TOTAL OF          7 INNER ITERATIONS.
    ------------------------------------------------

 NO OUTPUT CONTROL FOR STRESS PERIOD   18   TIME STEP   26
 
 SOLVING FOR HEAD 
                                                   Max.-Head-Change                         Max.-Flux-Residual
  Residual-Control   Outer-Iter.   Inner-Iter.     Column Row Layer    Maximum-Head-Change  Column Row Layer    Maximum-Flux-Residual          L2-NORM 
          0                 1           2             5    8     1       0.1640406940E-01       5    8    1         0.8825171533E+00      0.2051476448E+01
          0                 2           2             4    7     1      -0.2452554034E-01       5    8    1        -0.1333164300E+01      0.3249002650E+01
          0                 3           2             4    7     1       0.1670095064E-02       5    8    1         0.9330894399E-01      0.2274111840E+00
          0                 4           1             4    7     1      -0.6645466117E-04       5    8    1        -0.3815253020E-02      0.9299997962E-02

    ------------------------------------------------
       NWT REQUIRED            4 OUTER ITERATIONS 
       AND A TOTAL OF          7 INNER ITERATIONS.
    ------------------------------------------------

 NO OUTPUT CONTROL FOR STRESS PERIOD   18   TIME STEP   27
 
 SOLVING FOR HEAD 
                                                   Max.-Head-Change                         Max.-Flux-Residual
  Residual-Control   Outer-Iter.   Inner-Iter.     Column Row Layer    Maximum-Head-Change  Column Row Layer    Maximum-Flux-Residual          L2-NORM 
          0                 1           2             5    8     1       0.1651426266E-01       5    8    1         0.8884652706E+00      0.2066736680E+01
          0                 2           2             4    7     1      -0.2453795508E-01       5    8    1        -0.1333759835E+01      0.3250554002E+01
          0                 3           2             4    7     1       0.1670940460E-02       5    8    1         0.9335082617E-01      0.2275199684E+00
          0                 4           1             4    7     1      -0.6648830008E-04       5    8    1        -0.3816985003E-02      0.9304441478E-02

    ------------------------------------------------
       NWT REQUIRED            4 OUTER ITERATIONS 
       AND A TOTAL OF          7 INNER ITERATIONS.
    ------------------------------------------------

 NO OUTPUT CONTROL FOR STRESS PERIOD   18   TIME STEP   28
 
 SOLVING FOR HEAD 
                                                   Max.-Head-Change                         Max.-Flux-Residual
  Residual-Control   Outer-Iter.   Inner-Iter.     Column Row Layer    Maximum-Head-Change  Column Row Layer    Maximum-Flux-Residual          L2-NORM 
          0                 1           2             5    8     1       0.1662045958E-01       5    8    1         0.8941941005E+00      0.2081616880E+01
          0                 2           2             4    7     1      -0.2455022718E-01       5    8    1        -0.1334333560E+01      0.3252064658E+01
          0                 3           2             4    7     1       0.1671776141E-02       5    8    1         0.9339117174E-01      0.2276259021E+00
          0                 4           1             4    7     1      -0.6652155284E-04       5    8    1        -0.3818653157E-02      0.9308768305E-02

    ------------------------------------------------
       NWT REQUIRED            4 OUTER ITERATIONS 
       AND A TOTAL OF          7 INNER ITERATIONS.
    ------------------------------------------------

 NO OUTPUT CONTROL FOR STRESS PERIOD   18   TIME STEP   29
 
 SOLVING FOR HEAD 
                                                   Max.-Head-Change                         Max.-Flux-Residual
  Residual-Control   Outer-Iter.   Inner-Iter.     Column Row Layer    Maximum-Head-Change  Column Row Layer    Maximum-Flux-Residual          L2-NORM 
          0                 1           2             5    8     1       0.1672273655E-01       5    8    1         0.8997078532E+00      0.2096131770E+01
          0                 2           2             4    7     1      -0.2456237448E-01       5    8    1        -0.1334885658E+01      0.3253535966E+01
          0                 3           2             4    7     1       0.1672603325E-02       5    8    1         0.9342999341E-01      0.2277290794E+00
          0                 4           1             4    7     1      -0.6655446736E-04       5    8    1        -0.3820258014E-02      0.9312984706E-02

    ------------------------------------------------
       NWT REQUIRED            4 OUTER ITERATIONS 
       AND A TOTAL OF          7 INNER ITERATIONS.
    ------------------------------------------------

 NO OUTPUT CONTROL FOR STRESS PERIOD   18   TIME STEP   30



 STREAM LISTING     PERIOD     18   STEP       30

 LAYER ROW COL. STREAM  RCH.  FLOW INTO     FLOW TO   FLOW OUT OF   OVRLND.     DIRECT     STREAM       STREAM     STREAM     STREAM   STREAMBED  STREAMBED
                SEG.NO.  NO.  STRM. RCH.    AQUIFER    STRM. RCH.    RUNOFF     PRECIP       ET          HEAD       DEPTH      WIDTH   CONDCTNC.   GRADIENT

   1    1    1     1     1    6.3001E+01  3.8237E-01   6.2619E+01  0.000E+00  0.000E+00  0.000E+00  1.09461E+03  1.562E+00  1.863E+01  8.382E-02  1.521E+00
   1    2    2     1     2    6.2619E+01  5.9218E-01   6.2026E+01  0.000E+00  0.000E+00  0.000E+00  1.08961E+03  1.556E+00  1.857E+01  1.300E-01  1.519E+00
   1    3    3     1     3    6.2026E+01  5.0506E-01   6.1521E+01  0.000E+00  0.000E+00  0.000E+00  1.08397E+03  1.549E+00  1.850E+01  1.110E-01  1.516E+00
   1    3    4     1     4    6.1521E+01  4.6511E-01   6.1056E+01  0.000E+00  0.000E+00  0.000E+00  1.07895E+03  1.543E+00  1.845E+01  1.024E-01  1.514E+00
   1    4    5     2     1    5.9056E+01  3.9145E-01   5.8665E+01  0.000E+00  0.000E+00  0.000E+00  1.07395E+03  2.019E+00  1.200E+01  7.800E-02  1.673E+00
   1    5    6     2     2    5.8665E+01  3.0069E-01   5.8364E+01  0.000E+00  0.000E+00  0.000E+00  1.06852E+03  2.011E+00  1.200E+01  6.000E-02  1.670E+00
   1    6    6     2     3    5.8364E+01  3.0031E-01   5.8064E+01  0.000E+00  0.000E+00  0.000E+00  1.06380E+03  2.005E+00  1.200E+01  6.000E-02  1.668E+00
   1    7    6     2     4    5.8064E+01  2.9994E-01   5.7764E+01  0.000E+00  0.000E+00  0.000E+00  1.05907E+03  1.999E+00  1.200E+01  6.000E-02  1.666E+00
   1    8    6     2     5    5.7764E+01  2.9957E-01   5.7464E+01  0.000E+00  0.000E+00  0.000E+00  1.05435E+03  1.993E+00  1.200E+01  6.000E-02  1.664E+00
   1    3    5     3     1    2.0000E+00  2.8252E-01   1.7175E+00  0.000E+00  0.000E+00  0.000E+00  1.07555E+03  1.909E+00  9.636E+00  7.227E-02  1.955E+00
   1    3    6     3     2    1.7175E+00  2.4905E-01   1.4684E+00  0.000E+00  0.000E+00  0.000E+00  1.07264E+03  1.727E+00  8.909E+00  6.682E-02  1.864E+00
   1    3    7     3     3    1.4684E+00  1.9718E-01   1.2712E+00  0.000E+00  0.000E+00  0.000E+00  1.06987E+03  1.555E+00  8.218E+00  5.547E-02  1.777E+00
   1    4    8     3     4    1.2712E+00  2.2567E-01   1.0456E+00  0.000E+00  0.000E+00  0.000E+00  1.06682E+03  1.364E+00  7.455E+00  6.709E-02  1.682E+00
   1    5    8     3     5    1.0456E+00  1.5790E-01   8.8768E-01  0.000E+00  0.000E+00  0.000E+00  1.06362E+03  1.164E+00  6.655E+00  4.991E-02  1.582E+00
   1    6    8     3     6    8.8768E-01  5.5980E-02   8.3170E-01  0.000E+00  0.000E+00  0.000E+00  1.06158E+03  1.036E+00  6.145E+00  1.844E-02  1.518E+00
   1    5   10     4     1    1.0000E+01  9.0919E-02   9.9091E+00  0.000E+00  0.000E+00  0.000E+00  1.07836E+03  6.368E-01  1.000E+01  2.500E-02  1.212E+00
   1    5    9     4     2    9.9091E+00  1.8158E-01   9.7275E+00  0.000E+00  0.000E+00  0.000E+00  1.07154E+03  6.315E-01  1.000E+01  5.000E-02  1.211E+00
   1    6    8     4     3    9.7275E+00  1.2689E-01   9.6006E+00  0.000E+00  0.000E+00  0.000E+00  1.06381E+03  6.256E-01  1.000E+01  3.500E-02  1.209E+00
   1    6    8     5     1    1.0432E+01  2.2686E-01   1.0205E+01  0.000E+00  0.000E+00  0.000E+00  1.05868E+03  6.790E-01  1.542E+01  6.166E-02  1.226E+00
   1    7    7     5     2    1.0205E+01  2.7894E-01   9.9265E+00  0.000E+00  0.000E+00  0.000E+00  1.05417E+03  6.732E-01  1.519E+01  7.594E-02  1.224E+00
   1    8    7     5     3    9.9265E+00  1.9221E-01   9.7343E+00  0.000E+00  0.000E+00  0.000E+00  1.04992E+03  6.676E-01  1.497E+01  5.241E-02  1.223E+00
   1    8    6     5     4    9.7343E+00  1.3577E-01   9.5985E+00  0.000E+00  0.000E+00  0.000E+00  1.04691E+03  6.637E-01  1.482E+01  3.706E-02  1.221E+00
   1    9    6     6     1    6.7063E+01  3.1225E-01   6.6751E+01  0.000E+00  0.000E+00  0.000E+00  1.04493E+03  2.204E+00  1.200E+01  6.000E-02  1.735E+00
   1   10    7     6     2    6.6751E+01  3.1188E-01   6.6439E+01  0.000E+00  0.000E+00  0.000E+00  1.04038E+03  2.198E+00  1.200E+01  6.000E-02  1.733E+00
   1   11    7     6     3    6.6439E+01  3.1151E-01   6.6127E+01  0.000E+00  0.000E+00  0.000E+00  1.03583E+03  2.192E+00  1.200E+01  6.000E-02  1.731E+00
   1   12    7     6     4    6.6127E+01  3.1114E-01   6.5816E+01  0.000E+00  0.000E+00  0.000E+00  1.03128E+03  2.186E+00  1.200E+01  6.000E-02  1.729E+00
   1   13    7     6     5    6.5816E+01  2.3610E-02   6.5792E+01  0.000E+00  0.000E+00  0.000E+00  1.02809E+03  2.182E+00  1.200E+01  2.400E-02  3.279E-01
   1   14    9     7     1    1.5000E+02  1.3310E+00   1.4867E+02  0.000E+00  0.000E+00  0.000E+00  1.03987E+03  2.288E+00  5.529E+01  5.593E-01  7.933E-01
   1   13    8     7     2    1.4867E+02  1.8229E+00   1.4685E+02  0.000E+00  0.000E+00  0.000E+00  1.03478E+03  2.279E+00  5.526E+01  6.148E-01  9.884E-01
   1   13    7     7     3    1.4685E+02  1.4421E+00   1.4540E+02  0.000E+00  0.000E+00  0.000E+00  1.02969E+03  2.271E+00  5.522E+01  5.585E-01  8.608E-01
   1   13    6     8     1    2.1120E+02  1.0601E+00   2.1014E+02  0.000E+00  0.000E+00  0.000E+00  1.02507E+03  3.199E+00  4.639E+01  4.728E-01  7.475E-01
   1   13    5     8     2    2.1014E+02  2.5312E-01   2.0988E+02  0.000E+00  0.000E+00  0.000E+00  1.01882E+03  3.196E+00  4.634E+01  4.722E-01  1.787E-01
   1   13    4     8     3    2.0988E+02 -2.1927E+00   2.1208E+02  0.000E+00  0.000E+00  0.000E+00  1.01258E+03  3.201E+00  4.642E+01  4.730E+00 -1.545E-01
   1   13    3     8     4    2.1208E+02 -3.4551E+00   2.1553E+02  0.000E+00  0.000E+00  0.000E+00  1.00634E+03  3.217E+00  4.665E+01  4.754E+00 -2.423E-01
   1   13    2     8     5    2.1553E+02 -2.5498E+00   2.1808E+02  0.000E+00  0.000E+00  0.000E+00  1.00011E+03  3.234E+00  4.689E+01  4.779E+00 -1.779E-01
   1   13    1     8     6    2.1808E+02 -2.0015E+00   2.2008E+02  0.000E+00  0.000E+00  0.000E+00  9.95122E+02  3.247E+00  4.708E+01  2.878E+00 -2.318E-01





UNSATURATED ZONE PACKAGE VOLUMETRIC BUDGET FOR  TIME STEP    30 STRESS PERIOD   18
  ------------------------------------------------------------------------------



     CUMULATIVE VOLUMES      L**3       RATES FOR THIS TIME STEP      L**3/T
     ------------------                 ------------------------

           IN:                                      IN:
           ---                                      ---
        INFILTRATION =   471299004.7370          INFILTRATION =           8.3170

          OUT:                                     OUT:
          ----                                     ----
              UZF ET =   470538843.0916                UZF ET =           8.3175
        UZF RECHARGE =       73224.0000          UZF RECHARGE =       0.0000E+00

            IN - OUT =      686937.6454              IN - OUT =      -5.1427E-04

          STORAGE:                                 STORAGE:
          --------                                 --------
      STORAGE CHANGE =      686935.3572        STORAGE CHANGE =      -5.1478E-04

 PERCENT DISCREPANCY IS DIFFERENCE BETWEEN IN-OUT MINUS CHANGE IN STORAGE
 DIVIDED BY THE AVERAGE OF IN AND OUT TIMES 100

 PERCENT DISCREPANCY =           0.00     PERCENT DISCREPANCY =           0.00






1
  VOLUMETRIC BUDGET FOR AGRICULTURAL FIELDS AT  END OF TIME STEP   30, STRESS PERIOD  18
  ------------------------------------------------------------------------------

     CUMULATIVE VOLUMES      L**3       RATES FOR THIS TIME STEP      L**3/T
     ------------------                 ------------------------

           IN:                                      IN:
           ---                                      ---
               AG WELLS  =   433333568.0000                 AG WELLS  =           7.4695
      DIVERSION SEGMENTS =           0.0000        DIVERSION SEGMENTS =           0.0000
       IRRIGATION PONDS  =           0.0000         IRRIGATION PONDS  =           0.0000
           GW IRRIGATION =           0.0000             GW IRRIGATION =           0.0000
           SW IRRIGATION =           0.0000             SW IRRIGATION =           0.0000
        SYSTEM LOSSES GW =           0.0000          SYSTEM LOSSES GW =           0.0000
        SYSTEM LOSSES SW =           0.0000          SYSTEM LOSSES SW =           0.0000

                TOTAL IN =   433333568.0000                  TOTAL IN =           7.4695

          OUT:                                     OUT:
          ----                                     ----
               AG WELLS  =           0.0000                 AG WELLS  =           0.0000
      DIVERSION SEGMENTS =           0.0000        DIVERSION SEGMENTS =           0.0000
       IRRIGATION PONDS  =           0.0000         IRRIGATION PONDS  =           0.0000
           GW IRRIGATION =   433333568.0000             GW IRRIGATION =           7.4695
           SW IRRIGATION =           0.0000             SW IRRIGATION =           0.0000
        SYSTEM LOSSES GW =           0.0000          SYSTEM LOSSES GW =           0.0000
        SYSTEM LOSSES SW =           0.0000          SYSTEM LOSSES SW =           0.0000

               TOTAL OUT =   433333568.0000                 TOTAL OUT =           7.4695

                IN - OUT =           0.0000                  IN - OUT =           0.0000

     PERCENT DISCREPANCY =           0.00         PERCENT DISCREPANCY =           0.00



1
  VOLUMETRIC BUDGET FOR ENTIRE MODEL AT END OF TIME STEP   30, STRESS PERIOD  18
  ------------------------------------------------------------------------------

     CUMULATIVE VOLUMES      L**3       RATES FOR THIS TIME STEP      L**3/T
     ------------------                 ------------------------

           IN:                                      IN:
           ---                                      ---
             STORAGE     =   600509952.0000               STORAGE     =           5.4418
       CONSTANT HEAD     =           0.0000         CONSTANT HEAD     =           0.0000
     HEAD DEP BOUNDS     =    12785347.0000       HEAD DEP BOUNDS     =           0.2854
      STREAM LEAKAGE     =   561830464.0000        STREAM LEAKAGE     =          13.1178
        UZF RECHARGE     =       73223.9531          UZF RECHARGE     =           0.0000
               GW ET     =           0.0000                 GW ET     =           0.0000
     SURFACE LEAKAGE     =           0.0000       SURFACE LEAKAGE     =           0.0000
           AG WELLS      =           0.0000             AG WELLS      =           0.0000

                TOTAL IN =  1175198976.0000                  TOTAL IN =          18.8450

          OUT:                                     OUT:
          ----                                     ----
             STORAGE     =   251351328.0000               STORAGE     =           0.6081
       CONSTANT HEAD     =           0.0000         CONSTANT HEAD     =           0.0000
     HEAD DEP BOUNDS     =    13199393.0000       HEAD DEP BOUNDS     =           0.2971
      STREAM LEAKAGE     =   461912224.0000        STREAM LEAKAGE     =          10.1990
        UZF RECHARGE     =           0.0000          UZF RECHARGE     =           0.0000
               GW ET     =    15408124.0000                 GW ET     =           0.2710
     SURFACE LEAKAGE     =           0.0000       SURFACE LEAKAGE     =           0.0000
           AG WELLS      =   433333568.0000             AG WELLS      =           7.4695

               TOTAL OUT =  1175204608.0000                 TOTAL OUT =          18.8447

                IN - OUT =       -5632.0000                  IN - OUT =       3.0136E-04

     PERCENT DISCREPANCY =          -0.00         PERCENT DISCREPANCY =           0.00






         TIME SUMMARY AT END OF TIME STEP   30 IN STRESS PERIOD   18
                    SECONDS     MINUTES      HOURS       DAYS        YEARS
                    -----------------------------------------------------------
   TIME STEP LENGTH  87667.      1461.1      24.352      1.0147     2.77799E-03
 STRESS PERIOD TIME 2.63000E+06  43833.      730.56      30.440     8.33397E-02
         TOTAL TIME 4.47965E+07 7.46608E+05  12443.      518.48      1.4195    
1
1
                            STRESS PERIOD NO.   19, LENGTH =   2630000.    
                            -----------------------------------------------

                              NUMBER OF TIME STEPS =    30

                               MULTIPLIER FOR DELT =     1.000

                            INITIAL TIME STEP SIZE =   87666.66    

 REUSING NON-PARAMETER GHB CELLS FROM LAST STRESS PERIOD

      2 GHB CELLS

 REUSING STREAM SEGMENT DATA FROM LAST STRESS PERIOD



            AREAL INFILTRATION RATE
 READING ON UNIT   19 WITH FORMAT: (FREE)              

            1           2           3           4           5           6           7           8           9          10
 ........................................................................................................................
   1   1.0000E-10  2.0000E-10   0.000       0.000       0.000       0.000       0.000       0.000       0.000       0.000    
   2   2.0000E-10  1.0000E-10  2.0000E-10   0.000       0.000      8.0000E-10  8.0000E-10  5.0000E-10   0.000       0.000    
   3    0.000      5.0000E-10  1.0000E-10  1.0000E-10  8.0000E-10  8.0000E-10  5.0000E-10  5.0000E-10   0.000       0.000    
   4   8.0000E-10  5.0000E-10  1.0000E-10  1.0000E-10  1.0000E-10  1.0000E-10  1.0000E-10  1.0000E-10  2.0000E-10   0.000    
   5   8.0000E-10  5.0000E-10  1.0000E-10  1.0000E-10  1.0000E-10  1.0000E-10  1.0000E-10  1.0000E-10  1.0000E-10  1.0000E-10
   6   8.0000E-10  5.0000E-10  5.0000E-10  2.0000E-10  2.0000E-10  1.0000E-10  1.0000E-10  1.0000E-10  1.0000E-10  5.0000E-10
   7   8.0000E-10  5.0000E-10  5.0000E-10  2.0000E-10  2.0000E-10  1.0000E-10  1.0000E-10  2.0000E-10  2.0000E-10   0.000    
   8    0.000      5.0000E-10  5.0000E-10  2.0000E-10  2.0000E-10  1.0000E-10  1.0000E-10  2.0000E-10  5.0000E-10   0.000    
   9    0.000      5.0000E-10  5.0000E-10  2.0000E-10  2.0000E-10  1.0000E-10  1.0000E-10  2.0000E-10  5.0000E-10   0.000    
  10    0.000      5.0000E-10  5.0000E-10  2.0000E-10  2.0000E-10  1.0000E-10  1.0000E-10  2.0000E-10  5.0000E-10  8.0000E-10
  11    0.000      1.0000E-10  1.0000E-10  1.0000E-10  1.0000E-10  1.0000E-10  1.0000E-10  2.0000E-10  5.0000E-10   0.000    
  12   1.0000E-10  1.0000E-10  1.0000E-10  1.0000E-10  1.0000E-10  1.0000E-10  1.0000E-10  1.0000E-10  2.0000E-10   0.000    
  13   1.0000E-10  1.0000E-10  2.0000E-10  2.0000E-10  2.0000E-10  2.0000E-10  2.0000E-10  1.0000E-10  1.0000E-10   0.000    
  14    0.000      2.0000E-10  5.0000E-10  5.0000E-10  5.0000E-10  5.0000E-10  5.0000E-10  2.0000E-10  1.0000E-10   0.000    
  15    0.000       0.000      8.0000E-10  8.0000E-10  8.0000E-10  8.0000E-10   0.000       0.000       0.000       0.000    

                  ET RATE =  1.500000E-07

 USING ET EXTINCTION DEPTH FROM PREVIOUS STRESS PERIOD. CURRENT PERIOD IS:      19

 USING EXTINCTION WATER CONTENT FROM PREVIOUS STRESS PERIOD. CURRENT PERIOD IS:      19

 USING AIR ENTRY PRESSURE FROM PREVIOUS STRESS PERIOD. CURRENT PERIOD IS:      19

 USING ROOT PRESSURE HEAD FROM PREVIOUS STRESS PERIOD. CURRENT PERIOD IS:      19

 USING ROOT ACTIVITY FROM PREVIOUS STRESS PERIOD. CURRENT PERIOD IS:      19

 PROCESSING AG STRESS PERIOD DATA

 READING AG STRESS PERIOD DATA

 READING IRRIGATION WELL

 NO IRRPOND OR REUSING IRRPOND DATA FROM LAST STRESS PERIOD

 END PROCESSING AG STRESS PERIOD DATA OPTIONS
 
 SOLVING FOR HEAD 
                                                   Max.-Head-Change                         Max.-Flux-Residual
  Residual-Control   Outer-Iter.   Inner-Iter.     Column Row Layer    Maximum-Head-Change  Column Row Layer    Maximum-Flux-Residual          L2-NORM 
          0                 1           2             4    7     1      -0.5763259884E-01       4    7    1        -0.3012995565E+01      0.7173034754E+01
          0                 2           2             4    7     1       0.5606048509E-02       4    7    1         0.3012975819E+00      0.7172004784E+00
          0                 3           2             4    7     1      -0.3817513882E-03       4    7    1        -0.2109085628E-01      0.5019554375E-01
          0                 4           1             4    7     1       0.1519024367E-04       4    7    1         0.8626171500E-03      0.2052546255E-02

    ------------------------------------------------
       NWT REQUIRED            4 OUTER ITERATIONS 
       AND A TOTAL OF          7 INNER ITERATIONS.
    ------------------------------------------------

 OUTPUT CONTROL FOR STRESS PERIOD   19   TIME STEP    1
    PRINT BUDGET
    SAVE BUDGET
 UBDSV1 SAVING "         STORAGE" ON UNIT 102 AT TIME STEP 1, STRESS PERIOD 19
 UBDSV2 SAVING "   CONSTANT HEAD" ON UNIT 102 AT TIME STEP 1, STRESS PERIOD 19
 UBDSV1 SAVING "FLOW RIGHT FACE " ON UNIT 102 AT TIME STEP 1, STRESS PERIOD 19
 UBDSV1 SAVING "FLOW FRONT FACE " ON UNIT 102 AT TIME STEP 1, STRESS PERIOD 19

  HEAD DEP BOUNDS   PERIOD   19   STEP     1
 BOUNDARY      1   LAYER   1   ROW    13   COL     1   RATE   -0.296992    
 BOUNDARY      2   LAYER   1   ROW    14   COL     9   RATE    0.285433    



 STREAM LISTING     PERIOD     19   STEP        1

 LAYER ROW COL. STREAM  RCH.  FLOW INTO     FLOW TO   FLOW OUT OF   OVRLND.     DIRECT     STREAM       STREAM     STREAM     STREAM   STREAMBED  STREAMBED
                SEG.NO.  NO.  STRM. RCH.    AQUIFER    STRM. RCH.    RUNOFF     PRECIP       ET          HEAD       DEPTH      WIDTH   CONDCTNC.   GRADIENT

   1    1    1     1     1    5.8202E+01  3.6567E-01   5.7837E+01  0.000E+00  0.000E+00  0.000E+00  1.09455E+03  1.503E+00  1.804E+01  8.120E-02  1.501E+00
   1    2    2     1     2    5.7837E+01  5.6626E-01   5.7270E+01  0.000E+00  0.000E+00  0.000E+00  1.08956E+03  1.498E+00  1.799E+01  1.259E-01  1.499E+00
   1    3    3     1     3    5.7270E+01  4.8288E-01   5.6788E+01  0.000E+00  0.000E+00  0.000E+00  1.08391E+03  1.491E+00  1.792E+01  1.075E-01  1.497E+00
   1    3    4     1     4    5.6788E+01  4.4463E-01   5.6343E+01  0.000E+00  0.000E+00  0.000E+00  1.07889E+03  1.485E+00  1.786E+01  9.913E-02  1.495E+00
   1    4    5     2     1    5.4343E+01  3.8376E-01   5.3959E+01  0.000E+00  0.000E+00  0.000E+00  1.07385E+03  1.920E+00  1.200E+01  7.800E-02  1.640E+00
   1    5    6     2     2    5.3959E+01  2.9477E-01   5.3664E+01  0.000E+00  0.000E+00  0.000E+00  1.06842E+03  1.913E+00  1.200E+01  6.000E-02  1.638E+00
   1    6    6     2     3    5.3664E+01  2.9439E-01   5.3370E+01  0.000E+00  0.000E+00  0.000E+00  1.06370E+03  1.907E+00  1.200E+01  6.000E-02  1.636E+00
   1    7    6     2     4    5.3370E+01  2.9401E-01   5.3076E+01  0.000E+00  0.000E+00  0.000E+00  1.05898E+03  1.900E+00  1.200E+01  6.000E-02  1.633E+00
   1    8    6     2     5    5.3076E+01  2.9364E-01   5.2782E+01  0.000E+00  0.000E+00  0.000E+00  1.05425E+03  1.894E+00  1.200E+01  6.000E-02  1.631E+00
   1    3    5     3     1    2.0000E+00  2.8252E-01   1.7175E+00  0.000E+00  0.000E+00  0.000E+00  1.07555E+03  1.909E+00  9.636E+00  7.227E-02  1.955E+00
   1    3    6     3     2    1.7175E+00  2.4905E-01   1.4684E+00  0.000E+00  0.000E+00  0.000E+00  1.07264E+03  1.727E+00  8.909E+00  6.682E-02  1.864E+00
   1    3    7     3     3    1.4684E+00  1.9718E-01   1.2712E+00  0.000E+00  0.000E+00  0.000E+00  1.06987E+03  1.555E+00  8.218E+00  5.547E-02  1.777E+00
   1    4    8     3     4    1.2712E+00  2.2567E-01   1.0456E+00  0.000E+00  0.000E+00  0.000E+00  1.06682E+03  1.364E+00  7.455E+00  6.709E-02  1.682E+00
   1    5    8     3     5    1.0456E+00  1.5790E-01   8.8768E-01  0.000E+00  0.000E+00  0.000E+00  1.06362E+03  1.164E+00  6.655E+00  4.991E-02  1.582E+00
   1    6    8     3     6    8.8768E-01  5.5980E-02   8.3170E-01  0.000E+00  0.000E+00  0.000E+00  1.06158E+03  1.036E+00  6.145E+00  1.844E-02  1.518E+00
   1    5   10     4     1    1.0000E+01  9.0919E-02   9.9091E+00  0.000E+00  0.000E+00  0.000E+00  1.07836E+03  6.368E-01  1.000E+01  2.500E-02  1.212E+00
   1    5    9     4     2    9.9091E+00  1.8158E-01   9.7275E+00  0.000E+00  0.000E+00  0.000E+00  1.07154E+03  6.315E-01  1.000E+01  5.000E-02  1.211E+00
   1    6    8     4     3    9.7275E+00  1.2689E-01   9.6006E+00  0.000E+00  0.000E+00  0.000E+00  1.06381E+03  6.256E-01  1.000E+01  3.500E-02  1.209E+00
   1    6    8     5     1    1.0432E+01  2.2686E-01   1.0205E+01  0.000E+00  0.000E+00  0.000E+00  1.05868E+03  6.790E-01  1.542E+01  6.166E-02  1.226E+00
   1    7    7     5     2    1.0205E+01  2.7894E-01   9.9265E+00  0.000E+00  0.000E+00  0.000E+00  1.05417E+03  6.732E-01  1.519E+01  7.594E-02  1.224E+00
   1    8    7     5     3    9.9265E+00  1.9221E-01   9.7343E+00  0.000E+00  0.000E+00  0.000E+00  1.04992E+03  6.676E-01  1.497E+01  5.241E-02  1.223E+00
   1    8    6     5     4    9.7343E+00  1.3577E-01   9.5985E+00  0.000E+00  0.000E+00  0.000E+00  1.04691E+03  6.637E-01  1.482E+01  3.706E-02  1.221E+00
   1    9    6     6     1    6.2381E+01  3.0662E-01   6.2074E+01  0.000E+00  0.000E+00  0.000E+00  1.04484E+03  2.110E+00  1.200E+01  6.000E-02  1.703E+00
   1   10    7     6     2    6.2074E+01  3.0625E-01   6.1768E+01  0.000E+00  0.000E+00  0.000E+00  1.04029E+03  2.104E+00  1.200E+01  6.000E-02  1.701E+00
   1   11    7     6     3    6.1768E+01  3.0587E-01   6.1462E+01  0.000E+00  0.000E+00  0.000E+00  1.03573E+03  2.098E+00  1.200E+01  6.000E-02  1.699E+00
   1   12    7     6     4    6.1462E+01  3.0550E-01   6.1157E+01  0.000E+00  0.000E+00  0.000E+00  1.03118E+03  2.092E+00  1.200E+01  6.000E-02  1.697E+00
   1   13    7     6     5    6.1157E+01  2.1362E-02   6.1135E+01  0.000E+00  0.000E+00  0.000E+00  1.02800E+03  2.088E+00  1.200E+01  2.400E-02  2.967E-01
   1   14    9     7     1    1.5000E+02  1.3310E+00   1.4867E+02  0.000E+00  0.000E+00  0.000E+00  1.03987E+03  2.288E+00  5.529E+01  5.593E-01  7.933E-01
   1   13    8     7     2    1.4867E+02  1.8230E+00   1.4685E+02  0.000E+00  0.000E+00  0.000E+00  1.03478E+03  2.279E+00  5.526E+01  6.148E-01  9.884E-01
   1   13    7     7     3    1.4685E+02  1.4423E+00   1.4540E+02  0.000E+00  0.000E+00  0.000E+00  1.02969E+03  2.271E+00  5.522E+01  5.585E-01  8.609E-01
   1   13    6     8     1    2.0654E+02  1.0392E+00   2.0550E+02  0.000E+00  0.000E+00  0.000E+00  1.02505E+03  3.173E+00  4.601E+01  4.688E-01  7.389E-01
   1   13    5     8     2    2.0550E+02  2.3894E-01   2.0526E+02  0.000E+00  0.000E+00  0.000E+00  1.01879E+03  3.169E+00  4.595E+01  4.683E-01  1.701E-01
   1   13    4     8     3    2.0526E+02 -2.2769E+00   2.0754E+02  0.000E+00  0.000E+00  0.000E+00  1.01255E+03  3.175E+00  4.604E+01  4.691E+00 -1.618E-01
   1   13    3     8     4    2.0754E+02 -3.5183E+00   2.1106E+02  0.000E+00  0.000E+00  0.000E+00  1.00632E+03  3.192E+00  4.628E+01  4.716E+00 -2.487E-01
   1   13    2     8     5    2.1106E+02 -2.6390E+00   2.1369E+02  0.000E+00  0.000E+00  0.000E+00  1.00008E+03  3.209E+00  4.653E+01  4.742E+00 -1.855E-01
   1   13    1     8     6    2.1369E+02 -2.0517E+00   2.1575E+02  0.000E+00  0.000E+00  0.000E+00  9.95097E+02  3.222E+00  4.672E+01  2.857E+00 -2.394E-01



 UBDSV3 SAVING "           GW ET" ON UNIT  61 AT TIME STEP 1, STRESS PERIOD 19
 UBDSV3 SAVING "    UZF RECHARGE" ON UNIT  61 AT TIME STEP 1, STRESS PERIOD 19
 UBDSV3 SAVING " SURFACE LEAKAGE" ON UNIT  61 AT TIME STEP 1, STRESS PERIOD 19
 UBDSV3 SAVING "       HORT+DUNN" ON UNIT  61 AT TIME STEP 1, STRESS PERIOD 19
 UBDSV3 SAVING "  STORAGE CHANGE" ON UNIT  61 AT TIME STEP 1, STRESS PERIOD 19


UNSATURATED ZONE PACKAGE VOLUMETRIC BUDGET FOR  TIME STEP     1 STRESS PERIOD   19
  ------------------------------------------------------------------------------



     CUMULATIVE VOLUMES      L**3       RATES FOR THIS TIME STEP      L**3/T
     ------------------                 ------------------------

           IN:                                      IN:
           ---                                      ---
        INFILTRATION =   473345802.4829          INFILTRATION =          23.3475

          OUT:                                     OUT:
          ----                                     ----
              UZF ET =   472583010.5875                UZF ET =          23.3175
        UZF RECHARGE =       73224.0000          UZF RECHARGE =       0.0000E+00

            IN - OUT =      689567.8954              IN - OUT =       3.0004E-02

          STORAGE:                                 STORAGE:
          --------                                 --------
      STORAGE CHANGE =      689565.5900        STORAGE CHANGE =       3.0003E-02

 PERCENT DISCREPANCY IS DIFFERENCE BETWEEN IN-OUT MINUS CHANGE IN STORAGE
 DIVIDED BY THE AVERAGE OF IN AND OUT TIMES 100

 PERCENT DISCREPANCY =           0.00     PERCENT DISCREPANCY =           0.00






 

            AG WELLS      PERIOD   19   STEP   1
 AG WELL      1   LAYER   1   ROW     6   COL     4   RATE    -3.75000    
 AG WELL      2   LAYER   1   ROW     6   COL     5   RATE    -3.75000    
 AG WELL      3   LAYER   1   ROW     7   COL     4   RATE    -3.75000    
 AG WELL      4   LAYER   1   ROW     7   COL     5   RATE    -3.75000    
 AG WELL      5   LAYER   1   ROW     8   COL     4   RATE    -3.75000    
 AG WELL      6   LAYER   1   ROW     8   COL     5   RATE    -3.75000    
 
 

        GW IRRIGATION     PERIOD   19   STEP   1
 AG WELL      1   ROW     6   COL     4   RATE     3.75000    
 AG WELL      2   ROW     6   COL     5   RATE     3.75000    
 AG WELL      3   ROW     7   COL     4   RATE     3.75000    
 AG WELL      4   ROW     7   COL     5   RATE     3.75000    
 AG WELL      5   ROW     8   COL     4   RATE     3.75000    
 AG WELL      6   ROW     8   COL     5   RATE     3.75000    
 
1
  VOLUMETRIC BUDGET FOR AGRICULTURAL FIELDS AT  END OF TIME STEP    1, STRESS PERIOD  19
  ------------------------------------------------------------------------------

     CUMULATIVE VOLUMES      L**3       RATES FOR THIS TIME STEP      L**3/T
     ------------------                 ------------------------

           IN:                                      IN:
           ---                                      ---
               AG WELLS  =   435306080.0000                 AG WELLS  =          22.5000
      DIVERSION SEGMENTS =           0.0000        DIVERSION SEGMENTS =           0.0000
       IRRIGATION PONDS  =           0.0000         IRRIGATION PONDS  =           0.0000
           GW IRRIGATION =           0.0000             GW IRRIGATION =           0.0000
           SW IRRIGATION =           0.0000             SW IRRIGATION =           0.0000
        SYSTEM LOSSES GW =           0.0000          SYSTEM LOSSES GW =           0.0000
        SYSTEM LOSSES SW =           0.0000          SYSTEM LOSSES SW =           0.0000

                TOTAL IN =   435306080.0000                  TOTAL IN =          22.5000

          OUT:                                     OUT:
          ----                                     ----
               AG WELLS  =           0.0000                 AG WELLS  =           0.0000
      DIVERSION SEGMENTS =           0.0000        DIVERSION SEGMENTS =           0.0000
       IRRIGATION PONDS  =           0.0000         IRRIGATION PONDS  =           0.0000
           GW IRRIGATION =   435306080.0000             GW IRRIGATION =          22.5000
           SW IRRIGATION =           0.0000             SW IRRIGATION =           0.0000
        SYSTEM LOSSES GW =           0.0000          SYSTEM LOSSES GW =           0.0000
        SYSTEM LOSSES SW =           0.0000          SYSTEM LOSSES SW =           0.0000

               TOTAL OUT =   435306080.0000                 TOTAL OUT =          22.5000

                IN - OUT =           0.0000                  IN - OUT =           0.0000

     PERCENT DISCREPANCY =           0.00         PERCENT DISCREPANCY =           0.00



1
  VOLUMETRIC BUDGET FOR ENTIRE MODEL AT END OF TIME STEP    1, STRESS PERIOD  19
  ------------------------------------------------------------------------------

     CUMULATIVE VOLUMES      L**3       RATES FOR THIS TIME STEP      L**3/T
     ------------------                 ------------------------

           IN:                                      IN:
           ---                                      ---
             STORAGE     =   602378496.0000               STORAGE     =          21.3145
       CONSTANT HEAD     =           0.0000         CONSTANT HEAD     =           0.0000
     HEAD DEP BOUNDS     =    12810370.0000       HEAD DEP BOUNDS     =           0.2854
      STREAM LEAKAGE     =   562964992.0000        STREAM LEAKAGE     =          12.9416
        UZF RECHARGE     =       73223.9531          UZF RECHARGE     =           0.0000
               GW ET     =           0.0000                 GW ET     =           0.0000
     SURFACE LEAKAGE     =           0.0000       SURFACE LEAKAGE     =           0.0000
           AG WELLS      =           0.0000             AG WELLS      =           0.0000

                TOTAL IN =  1178227072.0000                  TOTAL IN =          34.5415

          OUT:                                     OUT:
          ----                                     ----
             STORAGE     =   251397312.0000               STORAGE     =           0.5246
       CONSTANT HEAD     =           0.0000         CONSTANT HEAD     =           0.0000
     HEAD DEP BOUNDS     =    13225429.0000       HEAD DEP BOUNDS     =           0.2970
      STREAM LEAKAGE     =   462831488.0000        STREAM LEAKAGE     =          10.4859
        UZF RECHARGE     =           0.0000          UZF RECHARGE     =           0.0000
               GW ET     =    15472477.0000                 GW ET     =           0.7341
     SURFACE LEAKAGE     =           0.0000       SURFACE LEAKAGE     =           0.0000
           AG WELLS      =   435306080.0000             AG WELLS      =          22.5000

               TOTAL OUT =  1178232704.0000                 TOTAL OUT =          34.5416

                IN - OUT =       -5632.0000                  IN - OUT =      -7.6294E-05

     PERCENT DISCREPANCY =          -0.00         PERCENT DISCREPANCY =          -0.00






         TIME SUMMARY AT END OF TIME STEP    1 IN STRESS PERIOD   19
                    SECONDS     MINUTES      HOURS       DAYS        YEARS
                    -----------------------------------------------------------
   TIME STEP LENGTH  87667.      1461.1      24.352      1.0147     2.77799E-03
 STRESS PERIOD TIME  87667.      1461.1      24.352      1.0147     2.77799E-03
         TOTAL TIME 4.48841E+07 7.48069E+05  12468.      519.49      1.4223    
1
 
 SOLVING FOR HEAD 
                                                   Max.-Head-Change                         Max.-Flux-Residual
  Residual-Control   Outer-Iter.   Inner-Iter.     Column Row Layer    Maximum-Head-Change  Column Row Layer    Maximum-Flux-Residual          L2-NORM 
          0                 1           2             5    8     1       0.1822833311E-01       5    8    1         0.9824910836E+00      0.2299837231E+01
          0                 2           2             4    7     1      -0.7118838675E-01       5    8    1        -0.3843179396E+01      0.9391436486E+01
          0                 3           2             4    7     1       0.4847631482E-02       5    8    1         0.2689715861E+00      0.6573295606E+00
          0                 4           2             4    7     1      -0.1928919325E-03       5    8    1        -0.1099712695E-01      0.2688210684E-01
          0                 5           1             4    7     1       0.2378441141E-05       5    8    1         0.1391041881E-03      0.3413900687E-03

    ------------------------------------------------
       NWT REQUIRED            5 OUTER ITERATIONS 
       AND A TOTAL OF          9 INNER ITERATIONS.
    ------------------------------------------------

 NO OUTPUT CONTROL FOR STRESS PERIOD   19   TIME STEP    2
 
 SOLVING FOR HEAD 
                                                   Max.-Head-Change                         Max.-Flux-Residual
  Residual-Control   Outer-Iter.   Inner-Iter.     Column Row Layer    Maximum-Head-Change  Column Row Layer    Maximum-Flux-Residual          L2-NORM 
          0                 1           2             5    8     1       0.1955765401E-01       5    8    1         0.1055532870E+01      0.2421010972E+01
          0                 2           2             4    7     1      -0.7122662618E-01       5    8    1        -0.3850483967E+01      0.9403785423E+01
          0                 3           2             4    7     1       0.4850235741E-02       5    8    1         0.2694858439E+00      0.6581938521E+00
          0                 4           2             4    7     1      -0.1929955565E-03       5    8    1        -0.1101845068E-01      0.2691703156E-01
          0                 5           1             4    7     1       0.2379718559E-05       5    8    1         0.1393941548E-03      0.3416781671E-03

    ------------------------------------------------
       NWT REQUIRED            5 OUTER ITERATIONS 
       AND A TOTAL OF          9 INNER ITERATIONS.
    ------------------------------------------------

 NO OUTPUT CONTROL FOR STRESS PERIOD   19   TIME STEP    3
 
 SOLVING FOR HEAD 
                                                   Max.-Head-Change                         Max.-Flux-Residual
  Residual-Control   Outer-Iter.   Inner-Iter.     Column Row Layer    Maximum-Head-Change  Column Row Layer    Maximum-Flux-Residual          L2-NORM 
          0                 1           2             5    8     1       0.2081583543E-01       5    8    1         0.1124604394E+01      0.2545827357E+01
          0                 2           2             4    7     1      -0.7126642257E-01       5    8    1        -0.3857391511E+01      0.9415737453E+01
          0                 3           2             4    7     1       0.4852945999E-02       5    8    1         0.2699721079E+00      0.6590320223E+00
          0                 4           2             4    7     1      -0.1931033992E-03       5    8    1        -0.1103860952E-01      0.2695105398E-01
          0                 5           1             4    7     1       0.2381048399E-05       5    8    1         0.1396679731E-03      0.3419823783E-03

    ------------------------------------------------
       NWT REQUIRED            5 OUTER ITERATIONS 
       AND A TOTAL OF          9 INNER ITERATIONS.
    ------------------------------------------------

 NO OUTPUT CONTROL FOR STRESS PERIOD   19   TIME STEP    4
 
 SOLVING FOR HEAD 
                                                   Max.-Head-Change                         Max.-Flux-Residual
  Residual-Control   Outer-Iter.   Inner-Iter.     Column Row Layer    Maximum-Head-Change  Column Row Layer    Maximum-Flux-Residual          L2-NORM 
          0                 1           2             5    8     1       0.2200774718E-01       5    8    1         0.1189979850E+01      0.2671292636E+01
          0                 2           2             4    7     1      -0.7130763769E-01       5    8    1        -0.3863929447E+01      0.9427306531E+01
          0                 3           2             4    7     1       0.4855752843E-02       5    8    1         0.2704323128E+00      0.6598438471E+00
          0                 4           2             4    7     1      -0.1932150844E-03       5    8    1        -0.1105768409E-01      0.2698411796E-01
          0                 5           1             4    7     1       0.2382425509E-05       5    8    1         0.1399268026E-03      0.3422747884E-03

    ------------------------------------------------
       NWT REQUIRED            5 OUTER ITERATIONS 
       AND A TOTAL OF          9 INNER ITERATIONS.
    ------------------------------------------------

 NO OUTPUT CONTROL FOR STRESS PERIOD   19   TIME STEP    5
 
 SOLVING FOR HEAD 
                                                   Max.-Head-Change                         Max.-Flux-Residual
  Residual-Control   Outer-Iter.   Inner-Iter.     Column Row Layer    Maximum-Head-Change  Column Row Layer    Maximum-Flux-Residual          L2-NORM 
          0                 1           2             5    8     1       0.2313772780E-01       5    8    1         0.1251903837E+01      0.2795561109E+01
          0                 2           2             4    7     1      -0.7135008885E-01       5    8    1        -0.3870122234E+01      0.9438505239E+01
          0                 3           2             4    7     1       0.4858643835E-02       5    8    1         0.2708681849E+00      0.6606300953E+00
          0                 4           2             4    7     1      -0.1933301187E-03       5    8    1        -0.1107574640E-01      0.2701620749E-01
          0                 5           1             4    7     1       0.2383843729E-05       5    8    1         0.1401716761E-03      0.3425865241E-03

    ------------------------------------------------
       NWT REQUIRED            5 OUTER ITERATIONS 
       AND A TOTAL OF          9 INNER ITERATIONS.
    ------------------------------------------------

 NO OUTPUT CONTROL FOR STRESS PERIOD   19   TIME STEP    6
 
 SOLVING FOR HEAD 
                                                   Max.-Head-Change                         Max.-Flux-Residual
  Residual-Control   Outer-Iter.   Inner-Iter.     Column Row Layer    Maximum-Head-Change  Column Row Layer    Maximum-Flux-Residual          L2-NORM 
          0                 1           2             5    8     1       0.2421019536E-01       5    8    1         0.1310624915E+01      0.2917553599E+01
          0                 2           2             4    7     1      -0.7139367057E-01       5    8    1        -0.3875994728E+01      0.9449349830E+01
          0                 3           2             4    7     1       0.4861611794E-02       5    8    1         0.2712814772E+00      0.6613918518E+00
          0                 4           2             4    7     1      -0.1934482153E-03       5    8    1        -0.1109286945E-01      0.2704736981E-01
          0                 5           1             4    7     1       0.2385300034E-05       5    8    1         0.1404035504E-03      0.3429043440E-03

    ------------------------------------------------
       NWT REQUIRED            5 OUTER ITERATIONS 
       AND A TOTAL OF          9 INNER ITERATIONS.
    ------------------------------------------------

 NO OUTPUT CONTROL FOR STRESS PERIOD   19   TIME STEP    7
 
 SOLVING FOR HEAD 
                                                   Max.-Head-Change                         Max.-Flux-Residual
  Residual-Control   Outer-Iter.   Inner-Iter.     Column Row Layer    Maximum-Head-Change  Column Row Layer    Maximum-Flux-Residual          L2-NORM 
          0                 1           2             5    8     1       0.2522866046E-01       5    8    1         0.1366340634E+01      0.3036620221E+01
          0                 2           2             4    7     1      -0.7143821849E-01       5    8    1        -0.3881566683E+01      0.9459853282E+01
          0                 3           2             4    7     1       0.4864645527E-02       5    8    1         0.2716735840E+00      0.6621299604E+00
          0                 4           2             4    7     1      -0.1935689298E-03       5    8    1        -0.1110911141E-01      0.2707762035E-01
          0                 5           1             4    7     1       0.2386788935E-05       5    8    1         0.1406232843E-03      0.3432278348E-03

    ------------------------------------------------
       NWT REQUIRED            5 OUTER ITERATIONS 
       AND A TOTAL OF          9 INNER ITERATIONS.
    ------------------------------------------------

 NO OUTPUT CONTROL FOR STRESS PERIOD   19   TIME STEP    8
 
 SOLVING FOR HEAD 
                                                   Max.-Head-Change                         Max.-Flux-Residual
  Residual-Control   Outer-Iter.   Inner-Iter.     Column Row Layer    Maximum-Head-Change  Column Row Layer    Maximum-Flux-Residual          L2-NORM 
          0                 1           2             5    8     1       0.2619678459E-01       5    8    1         0.1419256629E+01      0.3152416066E+01
          0                 2           2             4    7     1      -0.7148361809E-01       5    8    1        -0.3886858662E+01      0.9470030133E+01
          0                 3           2             4    7     1       0.4867737238E-02       5    8    1         0.2720459554E+00      0.6628453823E+00
          0                 4           2             4    7     1      -0.1936919510E-03       5    8    1        -0.1112453264E-01      0.2710699222E-01
          0                 5           1             4    7     1       0.2388305728E-05       5    8    1         0.1408316900E-03      0.3435522663E-03

    ------------------------------------------------
       NWT REQUIRED            5 OUTER ITERATIONS 
       AND A TOTAL OF          9 INNER ITERATIONS.
    ------------------------------------------------

 NO OUTPUT CONTROL FOR STRESS PERIOD   19   TIME STEP    9
 
 SOLVING FOR HEAD 
                                                   Max.-Head-Change                         Max.-Flux-Residual
  Residual-Control   Outer-Iter.   Inner-Iter.     Column Row Layer    Maximum-Head-Change  Column Row Layer    Maximum-Flux-Residual          L2-NORM 
          0                 1           2             5    8     1       0.2711794889E-01       5    8    1         0.1469562726E+01      0.3264772874E+01
          0                 2           2             4    7     1      -0.7152973655E-01       5    8    1        -0.3891889648E+01      0.9479893771E+01
          0                 3           2             4    7     1       0.4870877883E-02       5    8    1         0.2723999297E+00      0.6635390126E+00
          0                 4           2             4    7     1      -0.1938169192E-03       5    8    1        -0.1113918884E-01      0.2713551393E-01
          0                 5           1             4    7     1       0.2389846604E-05       5    8    1         0.1410295374E-03      0.3438744930E-03

    ------------------------------------------------
       NWT REQUIRED            5 OUTER ITERATIONS 
       AND A TOTAL OF          9 INNER ITERATIONS.
    ------------------------------------------------

 NO OUTPUT CONTROL FOR STRESS PERIOD   19   TIME STEP   10
 
 SOLVING FOR HEAD 
                                                   Max.-Head-Change                         Max.-Flux-Residual
  Residual-Control   Outer-Iter.   Inner-Iter.     Column Row Layer    Maximum-Head-Change  Column Row Layer    Maximum-Flux-Residual          L2-NORM 
          0                 1           2             5    8     1       0.2799513284E-01       5    8    1         0.1517426344E+01      0.3373634796E+01
          0                 2           2             4    7     1      -0.7157648900E-01       5    8    1        -0.3896676382E+01      0.9489456870E+01
          0                 3           2             4    7     1       0.4874061685E-02       5    8    1         0.2727366891E+00      0.6642116997E+00
          0                 4           2             4    7     1      -0.1939436050E-03       5    8    1        -0.1115312932E-01      0.2716321516E-01
          0                 5           1             4    7     1       0.2391408539E-05       5    8    1         0.1412175529E-03      0.3442077922E-03

    ------------------------------------------------
       NWT REQUIRED            5 OUTER ITERATIONS 
       AND A TOTAL OF          9 INNER ITERATIONS.
    ------------------------------------------------

 NO OUTPUT CONTROL FOR STRESS PERIOD   19   TIME STEP   11
 
 SOLVING FOR HEAD 
                                                   Max.-Head-Change                         Max.-Flux-Residual
  Residual-Control   Outer-Iter.   Inner-Iter.     Column Row Layer    Maximum-Head-Change  Column Row Layer    Maximum-Flux-Residual          L2-NORM 
          0                 1           2             5    8     1       0.2883094789E-01       5    8    1         0.1562994085E+01      0.3479018599E+01
          0                 2           2             4    7     1      -0.7162375766E-01       5    8    1        -0.3901233524E+01      0.9498732197E+01
          0                 3           2             4    7     1       0.4877280624E-02       5    8    1         0.2730572672E+00      0.6648642958E+00
          0                 4           2             4    7     1      -0.1940716891E-03       5    8    1        -0.1116639715E-01      0.2719011888E-01
          0                 5           1             4    7     1       0.2392987948E-05       5    8    1         0.1413962796E-03      0.3445202983E-03

    ------------------------------------------------
       NWT REQUIRED            5 OUTER ITERATIONS 
       AND A TOTAL OF          9 INNER ITERATIONS.
    ------------------------------------------------

 NO OUTPUT CONTROL FOR STRESS PERIOD   19   TIME STEP   12
 
 SOLVING FOR HEAD 
                                                   Max.-Head-Change                         Max.-Flux-Residual
  Residual-Control   Outer-Iter.   Inner-Iter.     Column Row Layer    Maximum-Head-Change  Column Row Layer    Maximum-Flux-Residual          L2-NORM 
          0                 1           2             5    8     1       0.2962823549E-01       5    8    1         0.1606424954E+01      0.3581000249E+01
          0                 2           2             4    7     1      -0.7167144587E-01       5    8    1        -0.3905576975E+01      0.9507732320E+01
          0                 3           2             4    7     1       0.4880528152E-02       5    8    1         0.2733627850E+00      0.6654978288E+00
          0                 4           2             4    7     1      -0.1942009006E-03       5    8    1        -0.1117903895E-01      0.2721624675E-01
          0                 5           1             4    7     1       0.2394581135E-05       5    8    1         0.1415663885E-03      0.3448389487E-03

    ------------------------------------------------
       NWT REQUIRED            5 OUTER ITERATIONS 
       AND A TOTAL OF          9 INNER ITERATIONS.
    ------------------------------------------------

 NO OUTPUT CONTROL FOR STRESS PERIOD   19   TIME STEP   13
 
 SOLVING FOR HEAD 
                                                   Max.-Head-Change                         Max.-Flux-Residual
  Residual-Control   Outer-Iter.   Inner-Iter.     Column Row Layer    Maximum-Head-Change  Column Row Layer    Maximum-Flux-Residual          L2-NORM 
          0                 1           2             5    8     1       0.3038933744E-01       5    8    1         0.1647850523E+01      0.3679646584E+01
          0                 2           2             4    7     1      -0.7171947640E-01       5    8    1        -0.3909719892E+01      0.9516466632E+01
          0                 3           2             4    7     1       0.4883810697E-02       5    8    1         0.2753487370E+00      0.6668201789E+00
          0                 4           2             4    7     1      -0.1943315150E-03       5    8    1        -0.1126093456E-01      0.2727084691E-01
          0                 5           1             4    7     1       0.2396191684E-05       5    8    1         0.1426529379E-03      0.3455220052E-03

    ------------------------------------------------
       NWT REQUIRED            5 OUTER ITERATIONS 
       AND A TOTAL OF          9 INNER ITERATIONS.
    ------------------------------------------------

 NO OUTPUT CONTROL FOR STRESS PERIOD   19   TIME STEP   14
 
 SOLVING FOR HEAD 
                                                   Max.-Head-Change                         Max.-Flux-Residual
  Residual-Control   Outer-Iter.   Inner-Iter.     Column Row Layer    Maximum-Head-Change  Column Row Layer    Maximum-Flux-Residual          L2-NORM 
          0                 1           2             5    8     1       0.3110249849E-01       5    8    1         0.1688709128E+01      0.3775823494E+01
          0                 2           2             4    7     1      -0.7176774795E-01       5    8    1        -0.3912912502E+01      0.9524632143E+01
          0                 3           2             5    8     1       0.4892595265E-02       5    8    1         0.2772388893E+00      0.6680989833E+00
          0                 4           2             5    8     1      -0.1946810562E-03       5    8    1        -0.1133963916E-01      0.2732471053E-01
          0                 5           1             5    8     1       0.2400501903E-05       5    8    1         0.1437769417E-03      0.3464007076E-03

    ------------------------------------------------
       NWT REQUIRED            5 OUTER ITERATIONS 
       AND A TOTAL OF          9 INNER ITERATIONS.
    ------------------------------------------------

 NO OUTPUT CONTROL FOR STRESS PERIOD   19   TIME STEP   15
 
 SOLVING FOR HEAD 
                                                   Max.-Head-Change                         Max.-Flux-Residual
  Residual-Control   Outer-Iter.   Inner-Iter.     Column Row Layer    Maximum-Head-Change  Column Row Layer    Maximum-Flux-Residual          L2-NORM 
          0                 1           2             5    8     1       0.3182257553E-01       5    8    1         0.1727935976E+01      0.3868997974E+01
          0                 2           2             4    7     1      -0.7181616878E-01       5    8    1        -0.3917725805E+01      0.9533302701E+01
          0                 3           2             4    7     1       0.4890385652E-02       5    8    1         0.2742249451E+00      0.6673046314E+00
          0                 4           2             4    7     1      -0.1945931378E-03       5    8    1        -0.1121442951E-01      0.2729081795E-01
          0                 5           1             4    7     1       0.2399417264E-05       5    8    1         0.1420267990E-03      0.3457830601E-03

    ------------------------------------------------
       NWT REQUIRED            5 OUTER ITERATIONS 
       AND A TOTAL OF          9 INNER ITERATIONS.
    ------------------------------------------------

 NO OUTPUT CONTROL FOR STRESS PERIOD   19   TIME STEP   16
 
 SOLVING FOR HEAD 
                                                   Max.-Head-Change                         Max.-Flux-Residual
  Residual-Control   Outer-Iter.   Inner-Iter.     Column Row Layer    Maximum-Head-Change  Column Row Layer    Maximum-Flux-Residual          L2-NORM 
          0                 1           2             5    8     1       0.3250996754E-01       5    8    1         0.1765349471E+01      0.3959099659E+01
          0                 2           2             4    7     1      -0.7186471963E-01       5    8    1        -0.3921467360E+01      0.9541364634E+01
          0                 3           2             4    7     1       0.4893691844E-02       5    8    1         0.2744881014E+00      0.6678721789E+00
          0                 4           2             4    7     1      -0.1947246942E-03       5    8    1        -0.1122531344E-01      0.2731430066E-01
          0                 5           1             4    7     1       0.2401039911E-05       5    8    1         0.1421729298E-03      0.3460877709E-03

    ------------------------------------------------
       NWT REQUIRED            5 OUTER ITERATIONS 
       AND A TOTAL OF          9 INNER ITERATIONS.
    ------------------------------------------------

 NO OUTPUT CONTROL FOR STRESS PERIOD   19   TIME STEP   17
 
 SOLVING FOR HEAD 
                                                   Max.-Head-Change                         Max.-Flux-Residual
  Residual-Control   Outer-Iter.   Inner-Iter.     Column Row Layer    Maximum-Head-Change  Column Row Layer    Maximum-Flux-Residual          L2-NORM 
          0                 1           2             5    8     1       0.3316693305E-01       5    8    1         0.1801076101E+01      0.4046272369E+01
          0                 2           2             4    7     1      -0.7191331986E-01       5    8    1        -0.3925040229E+01      0.9549198351E+01
          0                 3           2             4    7     1       0.4897001389E-02       5    8    1         0.2747393681E+00      0.6684236325E+00
          0                 4           2             4    7     1      -0.1948563838E-03       5    8    1        -0.1123570312E-01      0.2733712219E-01
          0                 5           1             4    7     1       0.2402663566E-05       5    8    1         0.1423122715E-03      0.3463841437E-03

    ------------------------------------------------
       NWT REQUIRED            5 OUTER ITERATIONS 
       AND A TOTAL OF          9 INNER ITERATIONS.
    ------------------------------------------------

 NO OUTPUT CONTROL FOR STRESS PERIOD   19   TIME STEP   18
 
 SOLVING FOR HEAD 
                                                   Max.-Head-Change                         Max.-Flux-Residual
  Residual-Control   Outer-Iter.   Inner-Iter.     Column Row Layer    Maximum-Head-Change  Column Row Layer    Maximum-Flux-Residual          L2-NORM 
          0                 1           2             5    8     1       0.3379527709E-01       5    8    1         0.1835217226E+01      0.4130648168E+01
          0                 2           2             4    7     1      -0.7196190896E-01       5    8    1        -0.3928454547E+01      0.9556813458E+01
          0                 3           2             4    7     1       0.4900310166E-02       5    8    1         0.2749794605E+00      0.6689592105E+00
          0                 4           2             4    7     1      -0.1949880427E-03       5    8    1        -0.1124562841E-01      0.2735924659E-01
          0                 5           1             4    7     1       0.2404286773E-05       5    8    1         0.1424452187E-03      0.3466730665E-03

    ------------------------------------------------
       NWT REQUIRED            5 OUTER ITERATIONS 
       AND A TOTAL OF          9 INNER ITERATIONS.
    ------------------------------------------------

 NO OUTPUT CONTROL FOR STRESS PERIOD   19   TIME STEP   19
 
 SOLVING FOR HEAD 
                                                   Max.-Head-Change                         Max.-Flux-Residual
  Residual-Control   Outer-Iter.   Inner-Iter.     Column Row Layer    Maximum-Head-Change  Column Row Layer    Maximum-Flux-Residual          L2-NORM 
          0                 1           2             5    8     1       0.3439667157E-01       5    8    1         0.1867866439E+01      0.4212323144E+01
          0                 2           2             4    7     1      -0.7201041777E-01       5    8    1        -0.3931719674E+01      0.9564217194E+01
          0                 3           2             4    7     1       0.4903613468E-02       5    8    1         0.2752090385E+00      0.6694793408E+00
          0                 4           2             4    7     1      -0.1951194839E-03       5    8    1        -0.1125511676E-01      0.2738068051E-01
          0                 5           1             4    7     1       0.2405907515E-05       5    8    1         0.1425721512E-03      0.3469492620E-03

    ------------------------------------------------
       NWT REQUIRED            5 OUTER ITERATIONS 
       AND A TOTAL OF          9 INNER ITERATIONS.
    ------------------------------------------------

 NO OUTPUT CONTROL FOR STRESS PERIOD   19   TIME STEP   20
 
 SOLVING FOR HEAD 
                                                   Max.-Head-Change                         Max.-Flux-Residual
  Residual-Control   Outer-Iter.   Inner-Iter.     Column Row Layer    Maximum-Head-Change  Column Row Layer    Maximum-Flux-Residual          L2-NORM 
          0                 1           2             5    8     1       0.3497280125E-01       5    8    1         0.1899118296E+01      0.4291416167E+01
          0                 2           2             4    7     1      -0.7205879524E-01       5    8    1        -0.3934845066E+01      0.9571417788E+01
          0                 3           2             4    7     1       0.4906907817E-02       5    8    1         0.2754287691E+00      0.6699850985E+00
          0                 4           2             4    7     1      -0.1952505693E-03       5    8    1        -0.1126419597E-01      0.2740151671E-01
          0                 5           1             4    7     1       0.2407523889E-05       5    8    1         0.1426934884E-03      0.3472183971E-03

    ------------------------------------------------
       NWT REQUIRED            5 OUTER ITERATIONS 
       AND A TOTAL OF          9 INNER ITERATIONS.
    ------------------------------------------------

 NO OUTPUT CONTROL FOR STRESS PERIOD   19   TIME STEP   21
 
 SOLVING FOR HEAD 
                                                   Max.-Head-Change                         Max.-Flux-Residual
  Residual-Control   Outer-Iter.   Inner-Iter.     Column Row Layer    Maximum-Head-Change  Column Row Layer    Maximum-Flux-Residual          L2-NORM 
          0                 1           2             5    8     1       0.3552509573E-01       5    8    1         0.1929052284E+01      0.4368048097E+01
          0                 2           2             4    7     1      -0.7210700831E-01       5    8    1        -0.3937838671E+01      0.9578424377E+01
          0                 3           2             4    7     1       0.4910190962E-02       5    8    1         0.2756392128E+00      0.6704768736E+00
          0                 4           2             4    7     1      -0.1953812087E-03       5    8    1        -0.1127288933E-01      0.2742174532E-01
          0                 5           1             4    7     1       0.2409134775E-05       5    8    1         0.1428095143E-03      0.3474813482E-03

    ------------------------------------------------
       NWT REQUIRED            5 OUTER ITERATIONS 
       AND A TOTAL OF          9 INNER ITERATIONS.
    ------------------------------------------------

 NO OUTPUT CONTROL FOR STRESS PERIOD   19   TIME STEP   22
 
 SOLVING FOR HEAD 
                                                   Max.-Head-Change                         Max.-Flux-Residual
  Residual-Control   Outer-Iter.   Inner-Iter.     Column Row Layer    Maximum-Head-Change  Column Row Layer    Maximum-Flux-Residual          L2-NORM 
          0                 1           2             5    8     1       0.3605515899E-01       5    8    1         0.1957758260E+01      0.4442324409E+01
          0                 2           2             4    7     1      -0.7215500058E-01       5    8    1        -0.3940709476E+01      0.9585243793E+01
          0                 3           2             4    7     1       0.4913459066E-02       5    8    1         0.2758410030E+00      0.6709553960E+00
          0                 4           2             4    7     1      -0.1955112499E-03       5    8    1        -0.1128122317E-01      0.2744141855E-01
          0                 5           1             4    7     1       0.2410738379E-05       5    8    1         0.1429205929E-03      0.3477317374E-03

    ------------------------------------------------
       NWT REQUIRED            5 OUTER ITERATIONS 
       AND A TOTAL OF          9 INNER ITERATIONS.
    ------------------------------------------------

 NO OUTPUT CONTROL FOR STRESS PERIOD   19   TIME STEP   23
 
 SOLVING FOR HEAD 
                                                   Max.-Head-Change                         Max.-Flux-Residual
  Residual-Control   Outer-Iter.   Inner-Iter.     Column Row Layer    Maximum-Head-Change  Column Row Layer    Maximum-Flux-Residual          L2-NORM 
          0                 1           2             5    8     1       0.3656420082E-01       5    8    1         0.1985303657E+01      0.4514341148E+01
          0                 2           2             4    7     1      -0.7220273319E-01       5    8    1        -0.3943464223E+01      0.9591883431E+01
          0                 3           2             4    7     1       0.4916709481E-02       5    8    1         0.2760346147E+00      0.6714212816E+00
          0                 4           2             4    7     1      -0.1956405865E-03       5    8    1        -0.1128921724E-01      0.2746057339E-01
          0                 5           1             4    7     1       0.2412333246E-05       5    8    1         0.1430270263E-03      0.3479997671E-03

    ------------------------------------------------
       NWT REQUIRED            5 OUTER ITERATIONS 
       AND A TOTAL OF          9 INNER ITERATIONS.
    ------------------------------------------------

 NO OUTPUT CONTROL FOR STRESS PERIOD   19   TIME STEP   24
 
 SOLVING FOR HEAD 
                                                   Max.-Head-Change                         Max.-Flux-Residual
  Residual-Control   Outer-Iter.   Inner-Iter.     Column Row Layer    Maximum-Head-Change  Column Row Layer    Maximum-Flux-Residual          L2-NORM 
          0                 1           2             5    8     1       0.3705333704E-01       5    8    1         0.2011751205E+01      0.4584190594E+01
          0                 2           2             4    7     1      -0.7225018371E-01       5    8    1        -0.3946109185E+01      0.9598349174E+01
          0                 3           2             4    7     1       0.4919940680E-02       5    8    1         0.2762204916E+00      0.6718749455E+00
          0                 4           2             4    7     1      -0.1957691592E-03       5    8    1        -0.1129689013E-01      0.2747922441E-01
          0                 5           1             4    7     1       0.2413918480E-05       5    8    1         0.1431290557E-03      0.3482206976E-03

    ------------------------------------------------
       NWT REQUIRED            5 OUTER ITERATIONS 
       AND A TOTAL OF          9 INNER ITERATIONS.
    ------------------------------------------------

 NO OUTPUT CONTROL FOR STRESS PERIOD   19   TIME STEP   25
 
 SOLVING FOR HEAD 
                                                   Max.-Head-Change                         Max.-Flux-Residual
  Residual-Control   Outer-Iter.   Inner-Iter.     Column Row Layer    Maximum-Head-Change  Column Row Layer    Maximum-Flux-Residual          L2-NORM 
          0                 1           2             5    8     1       0.3752389295E-01       5    8    1         0.2037174488E+01      0.4651986184E+01
          0                 2           2             4    7     1      -0.7229730682E-01       5    8    1        -0.3948651722E+01      0.9604649310E+01
          0                 3           2             4    7     1       0.4923149578E-02       5    8    1         0.2763991519E+00      0.6723169672E+00
          0                 4           2             4    7     1      -0.1958968445E-03       5    8    1        -0.1130426330E-01      0.2749739637E-01
          0                 5           1             4    7     1       0.2415493297E-05       5    8    1         0.1432269733E-03      0.3484562092E-03

    ------------------------------------------------
       NWT REQUIRED            5 OUTER ITERATIONS 
       AND A TOTAL OF          9 INNER ITERATIONS.
    ------------------------------------------------

 NO OUTPUT CONTROL FOR STRESS PERIOD   19   TIME STEP   26
 
 SOLVING FOR HEAD 
                                                   Max.-Head-Change                         Max.-Flux-Residual
  Residual-Control   Outer-Iter.   Inner-Iter.     Column Row Layer    Maximum-Head-Change  Column Row Layer    Maximum-Flux-Residual          L2-NORM 
          0                 1           2             5    8     1       0.3797667154E-01       5    8    1         0.2061618630E+01      0.4717790351E+01
          0                 2           2             4    7     1      -0.7234406870E-01       5    8    1        -0.3951096106E+01      0.9610787136E+01
          0                 3           2             4    7     1       0.4926333872E-02       5    8    1         0.2765708910E+00      0.6727474360E+00
          0                 4           2             4    7     1      -0.1960235503E-03       5    8    1        -0.1131134848E-01      0.2751507787E-01
          0                 5           1             4    7     1       0.2417055232E-05       5    8    1         0.1433209211E-03      0.3486839438E-03

    ------------------------------------------------
       NWT REQUIRED            5 OUTER ITERATIONS 
       AND A TOTAL OF          9 INNER ITERATIONS.
    ------------------------------------------------

 NO OUTPUT CONTROL FOR STRESS PERIOD   19   TIME STEP   27
 
 SOLVING FOR HEAD 
                                                   Max.-Head-Change                         Max.-Flux-Residual
  Residual-Control   Outer-Iter.   Inner-Iter.     Column Row Layer    Maximum-Head-Change  Column Row Layer    Maximum-Flux-Residual          L2-NORM 
          0                 1           2             5    8     1       0.3841284893E-01       5    8    1         0.2085148851E+01      0.4781702557E+01
          0                 2           2             4    7     1      -0.7239045235E-01       5    8    1        -0.3953449337E+01      0.9616771401E+01
          0                 3           2             4    7     1       0.4929492405E-02       5    8    1         0.2767359178E+00      0.6731667703E+00
          0                 4           2             4    7     1      -0.1961492313E-03       5    8    1        -0.1131812698E-01      0.2753226800E-01
          0                 5           1             4    7     1       0.2418604733E-05       5    8    1         0.1434087692E-03      0.3489062654E-03

    ------------------------------------------------
       NWT REQUIRED            5 OUTER ITERATIONS 
       AND A TOTAL OF          9 INNER ITERATIONS.
    ------------------------------------------------

 NO OUTPUT CONTROL FOR STRESS PERIOD   19   TIME STEP   28
 
 SOLVING FOR HEAD 
                                                   Max.-Head-Change                         Max.-Flux-Residual
  Residual-Control   Outer-Iter.   Inner-Iter.     Column Row Layer    Maximum-Head-Change  Column Row Layer    Maximum-Flux-Residual          L2-NORM 
          0                 1           2             5    8     1       0.3883277532E-01       5    8    1         0.2107818283E+01      0.4845575470E+01
          0                 2           2             4    7     1      -0.7243644249E-01       5    8    1        -0.3955716485E+01      0.9622616023E+01
          0                 3           2             4    7     1       0.4932624138E-02       5    8    1         0.2768948997E+00      0.6735762893E+00
          0                 4           2             4    7     1      -0.1962738461E-03       5    8    1        -0.1132465632E-01      0.2754905426E-01
          0                 5           1             4    7     1       0.2420141352E-05       5    8    1         0.1434933690E-03      0.3491175291E-03

    ------------------------------------------------
       NWT REQUIRED            5 OUTER ITERATIONS 
       AND A TOTAL OF          9 INNER ITERATIONS.
    ------------------------------------------------

 NO OUTPUT CONTROL FOR STRESS PERIOD   19   TIME STEP   29
 
 SOLVING FOR HEAD 
                                                   Max.-Head-Change                         Max.-Flux-Residual
  Residual-Control   Outer-Iter.   Inner-Iter.     Column Row Layer    Maximum-Head-Change  Column Row Layer    Maximum-Flux-Residual          L2-NORM 
          0                 1           2             5    8     1       0.3923705493E-01       5    8    1         0.2129637213E+01      0.4909164914E+01
          0                 2           2             4    7     1      -0.7248198998E-01       5    8    1        -0.3957898581E+01      0.9628320095E+01
          0                 3           2             4    7     1       0.4935725723E-02       5    8    1         0.2770479110E+00      0.6739757718E+00
          0                 4           2             4    7     1      -0.1963972611E-03       5    8    1        -0.1133093981E-01      0.2756541068E-01
          0                 5           1             4    7     1       0.2421662962E-05       5    8    1         0.1435747051E-03      0.3493264622E-03

    ------------------------------------------------
       NWT REQUIRED            5 OUTER ITERATIONS 
       AND A TOTAL OF          9 INNER ITERATIONS.
    ------------------------------------------------

 NO OUTPUT CONTROL FOR STRESS PERIOD   19   TIME STEP   30



 STREAM LISTING     PERIOD     19   STEP       30

 LAYER ROW COL. STREAM  RCH.  FLOW INTO     FLOW TO   FLOW OUT OF   OVRLND.     DIRECT     STREAM       STREAM     STREAM     STREAM   STREAMBED  STREAMBED
                SEG.NO.  NO.  STRM. RCH.    AQUIFER    STRM. RCH.    RUNOFF     PRECIP       ET          HEAD       DEPTH      WIDTH   CONDCTNC.   GRADIENT

   1    1    1     1     1    5.4001E+01  3.5066E-01   5.3650E+01  0.000E+00  0.000E+00  0.000E+00  1.09450E+03  1.450E+00  1.751E+01  7.879E-02  1.483E+00
   1    2    2     1     2    5.3650E+01  5.4294E-01   5.3107E+01  0.000E+00  0.000E+00  0.000E+00  1.08950E+03  1.445E+00  1.745E+01  1.222E-01  1.482E+00
   1    3    3     1     3    5.3107E+01  4.6294E-01   5.2644E+01  0.000E+00  0.000E+00  0.000E+00  1.08386E+03  1.438E+00  1.739E+01  1.043E-01  1.479E+00
   1    3    4     1     4    5.2644E+01  4.2621E-01   5.2218E+01  0.000E+00  0.000E+00  0.000E+00  1.07884E+03  1.432E+00  1.733E+01  9.616E-02  1.477E+00
   1    4    5     2     1    5.0218E+01  3.7682E-01   4.9841E+01  0.000E+00  0.000E+00  0.000E+00  1.07376E+03  1.831E+00  1.200E+01  7.800E-02  1.610E+00
   1    5    6     2     2    4.9841E+01  2.8942E-01   4.9552E+01  0.000E+00  0.000E+00  0.000E+00  1.06833E+03  1.824E+00  1.200E+01  6.000E-02  1.608E+00
   1    6    6     2     3    4.9552E+01  2.8904E-01   4.9263E+01  0.000E+00  0.000E+00  0.000E+00  1.06361E+03  1.817E+00  1.200E+01  6.000E-02  1.606E+00
   1    7    6     2     4    4.9263E+01  2.8865E-01   4.8974E+01  0.000E+00  0.000E+00  0.000E+00  1.05889E+03  1.811E+00  1.200E+01  6.000E-02  1.604E+00
   1    8    6     2     5    4.8974E+01  2.8827E-01   4.8686E+01  0.000E+00  0.000E+00  0.000E+00  1.05416E+03  1.804E+00  1.200E+01  6.000E-02  1.601E+00
   1    3    5     3     1    2.0000E+00  2.8252E-01   1.7175E+00  0.000E+00  0.000E+00  0.000E+00  1.07555E+03  1.909E+00  9.636E+00  7.227E-02  1.955E+00
   1    3    6     3     2    1.7175E+00  2.4905E-01   1.4684E+00  0.000E+00  0.000E+00  0.000E+00  1.07264E+03  1.727E+00  8.909E+00  6.682E-02  1.864E+00
   1    3    7     3     3    1.4684E+00  1.9718E-01   1.2712E+00  0.000E+00  0.000E+00  0.000E+00  1.06987E+03  1.555E+00  8.218E+00  5.547E-02  1.777E+00
   1    4    8     3     4    1.2712E+00  2.2567E-01   1.0456E+00  0.000E+00  0.000E+00  0.000E+00  1.06682E+03  1.364E+00  7.455E+00  6.709E-02  1.682E+00
   1    5    8     3     5    1.0456E+00  1.5790E-01   8.8768E-01  0.000E+00  0.000E+00  0.000E+00  1.06362E+03  1.164E+00  6.655E+00  4.991E-02  1.582E+00
   1    6    8     3     6    8.8768E-01  5.5980E-02   8.3170E-01  0.000E+00  0.000E+00  0.000E+00  1.06158E+03  1.036E+00  6.145E+00  1.844E-02  1.518E+00
   1    5   10     4     1    1.0000E+01  9.0919E-02   9.9091E+00  0.000E+00  0.000E+00  0.000E+00  1.07836E+03  6.368E-01  1.000E+01  2.500E-02  1.212E+00
   1    5    9     4     2    9.9091E+00  1.8158E-01   9.7275E+00  0.000E+00  0.000E+00  0.000E+00  1.07154E+03  6.315E-01  1.000E+01  5.000E-02  1.211E+00
   1    6    8     4     3    9.7275E+00  1.2689E-01   9.6006E+00  0.000E+00  0.000E+00  0.000E+00  1.06381E+03  6.256E-01  1.000E+01  3.500E-02  1.209E+00
   1    6    8     5     1    1.0432E+01  2.2686E-01   1.0205E+01  0.000E+00  0.000E+00  0.000E+00  1.05868E+03  6.790E-01  1.542E+01  6.166E-02  1.226E+00
   1    7    7     5     2    1.0205E+01  2.7894E-01   9.9265E+00  0.000E+00  0.000E+00  0.000E+00  1.05417E+03  6.732E-01  1.519E+01  7.594E-02  1.224E+00
   1    8    7     5     3    9.9265E+00  1.9221E-01   9.7343E+00  0.000E+00  0.000E+00  0.000E+00  1.04992E+03  6.676E-01  1.497E+01  5.241E-02  1.223E+00
   1    8    6     5     4    9.7343E+00  1.3577E-01   9.5985E+00  0.000E+00  0.000E+00  0.000E+00  1.04691E+03  6.637E-01  1.482E+01  3.706E-02  1.221E+00
   1    9    6     6     1    5.8284E+01  3.0156E-01   5.7983E+01  0.000E+00  0.000E+00  0.000E+00  1.04475E+03  2.026E+00  1.200E+01  6.000E-02  1.675E+00
   1   10    7     6     2    5.7983E+01  3.0118E-01   5.7682E+01  0.000E+00  0.000E+00  0.000E+00  1.04020E+03  2.020E+00  1.200E+01  6.000E-02  1.673E+00
   1   11    7     6     3    5.7682E+01  3.0080E-01   5.7381E+01  0.000E+00  0.000E+00  0.000E+00  1.03565E+03  2.013E+00  1.200E+01  6.000E-02  1.671E+00
   1   12    7     6     4    5.7381E+01  3.0042E-01   5.7080E+01  0.000E+00  0.000E+00  0.000E+00  1.03110E+03  2.007E+00  1.200E+01  6.000E-02  1.669E+00
   1   13    7     6     5    5.7080E+01  1.9607E-02   5.7061E+01  0.000E+00  0.000E+00  0.000E+00  1.02791E+03  2.004E+00  1.200E+01  2.400E-02  2.723E-01
   1   14    9     7     1    1.5000E+02  1.3317E+00   1.4867E+02  0.000E+00  0.000E+00  0.000E+00  1.03987E+03  2.288E+00  5.529E+01  5.593E-01  7.937E-01
   1   13    8     7     2    1.4867E+02  1.8262E+00   1.4684E+02  0.000E+00  0.000E+00  0.000E+00  1.03478E+03  2.279E+00  5.526E+01  6.148E-01  9.902E-01
   1   13    7     7     3    1.4684E+02  1.4487E+00   1.4539E+02  0.000E+00  0.000E+00  0.000E+00  1.02969E+03  2.271E+00  5.522E+01  5.585E-01  8.647E-01
   1   13    6     8     1    2.0245E+02  1.0299E+00   2.0142E+02  0.000E+00  0.000E+00  0.000E+00  1.02502E+03  3.149E+00  4.566E+01  4.653E-01  7.378E-01
   1   13    5     8     2    2.0142E+02  2.3556E-01   2.0119E+02  0.000E+00  0.000E+00  0.000E+00  1.01877E+03  3.145E+00  4.561E+01  4.648E-01  1.689E-01
   1   13    4     8     3    2.0119E+02 -2.2654E+00   2.0345E+02  0.000E+00  0.000E+00  0.000E+00  1.01253E+03  3.151E+00  4.569E+01  4.656E+00 -1.622E-01
   1   13    3     8     4    2.0345E+02 -3.4610E+00   2.0692E+02  0.000E+00  0.000E+00  0.000E+00  1.00629E+03  3.168E+00  4.594E+01  4.681E+00 -2.465E-01
   1   13    2     8     5    2.0692E+02 -2.6101E+00   2.0953E+02  0.000E+00  0.000E+00  0.000E+00  1.00006E+03  3.185E+00  4.619E+01  4.707E+00 -1.848E-01
   1   13    1     8     6    2.0953E+02 -2.0316E+00   2.1156E+02  0.000E+00  0.000E+00  0.000E+00  9.95074E+02  3.199E+00  4.638E+01  2.836E+00 -2.388E-01





UNSATURATED ZONE PACKAGE VOLUMETRIC BUDGET FOR  TIME STEP    30 STRESS PERIOD   19
  ------------------------------------------------------------------------------



     CUMULATIVE VOLUMES      L**3       RATES FOR THIS TIME STEP      L**3/T
     ------------------                 ------------------------

           IN:                                      IN:
           ---                                      ---
        INFILTRATION =   532625638.9259          INFILTRATION =          23.3171

          OUT:                                     OUT:
          ----                                     ----
              UZF ET =   531863867.9680                UZF ET =          23.3175
        UZF RECHARGE =       73224.0000          UZF RECHARGE =       0.0000E+00

            IN - OUT =      688546.9579              IN - OUT =      -3.8195E-04

          STORAGE:                                 STORAGE:
          --------                                 --------
      STORAGE CHANGE =      688542.6461        STORAGE CHANGE =      -3.8371E-04

 PERCENT DISCREPANCY IS DIFFERENCE BETWEEN IN-OUT MINUS CHANGE IN STORAGE
 DIVIDED BY THE AVERAGE OF IN AND OUT TIMES 100

 PERCENT DISCREPANCY =           0.00     PERCENT DISCREPANCY =           0.00






1
  VOLUMETRIC BUDGET FOR AGRICULTURAL FIELDS AT  END OF TIME STEP   30, STRESS PERIOD  19
  ------------------------------------------------------------------------------

     CUMULATIVE VOLUMES      L**3       RATES FOR THIS TIME STEP      L**3/T
     ------------------                 ------------------------

           IN:                                      IN:
           ---                                      ---
               AG WELLS  =   492430976.0000                 AG WELLS  =          22.4696
      DIVERSION SEGMENTS =           0.0000        DIVERSION SEGMENTS =           0.0000
       IRRIGATION PONDS  =           0.0000         IRRIGATION PONDS  =           0.0000
           GW IRRIGATION =           0.0000             GW IRRIGATION =           0.0000
           SW IRRIGATION =           0.0000             SW IRRIGATION =           0.0000
        SYSTEM LOSSES GW =           0.0000          SYSTEM LOSSES GW =           0.0000
        SYSTEM LOSSES SW =           0.0000          SYSTEM LOSSES SW =           0.0000

                TOTAL IN =   492430976.0000                  TOTAL IN =          22.4696

          OUT:                                     OUT:
          ----                                     ----
               AG WELLS  =           0.0000                 AG WELLS  =           0.0000
      DIVERSION SEGMENTS =           0.0000        DIVERSION SEGMENTS =           0.0000
       IRRIGATION PONDS  =           0.0000         IRRIGATION PONDS  =           0.0000
           GW IRRIGATION =   492430976.0000             GW IRRIGATION =          22.4696
           SW IRRIGATION =           0.0000             SW IRRIGATION =           0.0000
        SYSTEM LOSSES GW =           0.0000          SYSTEM LOSSES GW =           0.0000
        SYSTEM LOSSES SW =           0.0000          SYSTEM LOSSES SW =           0.0000

               TOTAL OUT =   492430976.0000                 TOTAL OUT =          22.4696

                IN - OUT =           0.0000                  IN - OUT =           0.0000

     PERCENT DISCREPANCY =           0.00         PERCENT DISCREPANCY =           0.00



1
  VOLUMETRIC BUDGET FOR ENTIRE MODEL AT END OF TIME STEP   30, STRESS PERIOD  19
  ------------------------------------------------------------------------------

     CUMULATIVE VOLUMES      L**3       RATES FOR THIS TIME STEP      L**3/T
     ------------------                 ------------------------

           IN:                                      IN:
           ---                                      ---
             STORAGE     =   654732352.0000               STORAGE     =          20.7413
       CONSTANT HEAD     =           0.0000         CONSTANT HEAD     =           0.0000
     HEAD DEP BOUNDS     =    13536096.0000       HEAD DEP BOUNDS     =           0.2855
      STREAM LEAKAGE     =   595869120.0000        STREAM LEAKAGE     =          12.8121
        UZF RECHARGE     =       73223.9531          UZF RECHARGE     =           0.0000
               GW ET     =           0.0000                 GW ET     =           0.0000
     SURFACE LEAKAGE     =           0.0000       SURFACE LEAKAGE     =           0.0000
           AG WELLS      =           0.0000             AG WELLS      =           0.0000

                TOTAL IN =  1264210688.0000                  TOTAL IN =          33.8389

          OUT:                                     OUT:
          ----                                     ----
             STORAGE     =   252466560.0000               STORAGE     =           0.3666
       CONSTANT HEAD     =           0.0000         CONSTANT HEAD     =           0.0000
     HEAD DEP BOUNDS     =    13978994.0000       HEAD DEP BOUNDS     =           0.2960
      STREAM LEAKAGE     =   488790848.0000        STREAM LEAKAGE     =          10.3681
        UZF RECHARGE     =           0.0000          UZF RECHARGE     =           0.0000
               GW ET     =    16548686.0000                 GW ET     =           0.3385
     SURFACE LEAKAGE     =           0.0000       SURFACE LEAKAGE     =           0.0000
           AG WELLS      =   492430976.0000             AG WELLS      =          22.4696

               TOTAL OUT =  1264216064.0000                 TOTAL OUT =          33.8389

                IN - OUT =       -5376.0000                  IN - OUT =       1.9073E-05

     PERCENT DISCREPANCY =          -0.00         PERCENT DISCREPANCY =           0.00






         TIME SUMMARY AT END OF TIME STEP   30 IN STRESS PERIOD   19
                    SECONDS     MINUTES      HOURS       DAYS        YEARS
                    -----------------------------------------------------------
   TIME STEP LENGTH  87667.      1461.1      24.352      1.0147     2.77799E-03
 STRESS PERIOD TIME 2.63000E+06  43833.      730.56      30.440     8.33397E-02
         TOTAL TIME 4.74265E+07 7.90442E+05  13174.      548.92      1.5029    
1
1
                            STRESS PERIOD NO.   20, LENGTH =   2630000.    
                            -----------------------------------------------

                              NUMBER OF TIME STEPS =    30

                               MULTIPLIER FOR DELT =     1.000

                            INITIAL TIME STEP SIZE =   87666.66    

 REUSING NON-PARAMETER GHB CELLS FROM LAST STRESS PERIOD

      2 GHB CELLS

 REUSING STREAM SEGMENT DATA FROM LAST STRESS PERIOD



            AREAL INFILTRATION RATE
 READING ON UNIT   19 WITH FORMAT: (FREE)              

            1           2           3           4           5           6           7           8           9          10
 ........................................................................................................................
   1   1.0000E-10  2.0000E-10   0.000       0.000       0.000       0.000       0.000       0.000       0.000       0.000    
   2   2.0000E-10  1.0000E-10  2.0000E-10   0.000       0.000      8.0000E-10  8.0000E-10  5.0000E-10   0.000       0.000    
   3    0.000      5.0000E-10  1.0000E-10  1.0000E-10  8.0000E-10  8.0000E-10  5.0000E-10  5.0000E-10   0.000       0.000    
   4   8.0000E-10  5.0000E-10  1.0000E-10  1.0000E-10  1.0000E-10  1.0000E-10  1.0000E-10  1.0000E-10  2.0000E-10   0.000    
   5   8.0000E-10  5.0000E-10  1.0000E-10  1.0000E-10  1.0000E-10  1.0000E-10  1.0000E-10  1.0000E-10  1.0000E-10  1.0000E-10
   6   8.0000E-10  5.0000E-10  5.0000E-10  2.0000E-10  2.0000E-10  1.0000E-10  1.0000E-10  1.0000E-10  1.0000E-10  5.0000E-10
   7   8.0000E-10  5.0000E-10  5.0000E-10  2.0000E-10  2.0000E-10  1.0000E-10  1.0000E-10  2.0000E-10  2.0000E-10   0.000    
   8    0.000      5.0000E-10  5.0000E-10  2.0000E-10  2.0000E-10  1.0000E-10  1.0000E-10  2.0000E-10  5.0000E-10   0.000    
   9    0.000      5.0000E-10  5.0000E-10  2.0000E-10  2.0000E-10  1.0000E-10  1.0000E-10  2.0000E-10  5.0000E-10   0.000    
  10    0.000      5.0000E-10  5.0000E-10  2.0000E-10  2.0000E-10  1.0000E-10  1.0000E-10  2.0000E-10  5.0000E-10  8.0000E-10
  11    0.000      1.0000E-10  1.0000E-10  1.0000E-10  1.0000E-10  1.0000E-10  1.0000E-10  2.0000E-10  5.0000E-10   0.000    
  12   1.0000E-10  1.0000E-10  1.0000E-10  1.0000E-10  1.0000E-10  1.0000E-10  1.0000E-10  1.0000E-10  2.0000E-10   0.000    
  13   1.0000E-10  1.0000E-10  2.0000E-10  2.0000E-10  2.0000E-10  2.0000E-10  2.0000E-10  1.0000E-10  1.0000E-10   0.000    
  14    0.000      2.0000E-10  5.0000E-10  5.0000E-10  5.0000E-10  5.0000E-10  5.0000E-10  2.0000E-10  1.0000E-10   0.000    
  15    0.000       0.000      8.0000E-10  8.0000E-10  8.0000E-10  8.0000E-10   0.000       0.000       0.000       0.000    

                  ET RATE =  4.000000E-07

 USING ET EXTINCTION DEPTH FROM PREVIOUS STRESS PERIOD. CURRENT PERIOD IS:      20

 USING EXTINCTION WATER CONTENT FROM PREVIOUS STRESS PERIOD. CURRENT PERIOD IS:      20

 USING AIR ENTRY PRESSURE FROM PREVIOUS STRESS PERIOD. CURRENT PERIOD IS:      20

 USING ROOT PRESSURE HEAD FROM PREVIOUS STRESS PERIOD. CURRENT PERIOD IS:      20

 USING ROOT ACTIVITY FROM PREVIOUS STRESS PERIOD. CURRENT PERIOD IS:      20

 PROCESSING AG STRESS PERIOD DATA

 READING AG STRESS PERIOD DATA

 READING IRRIGATION WELL

 NO IRRPOND OR REUSING IRRPOND DATA FROM LAST STRESS PERIOD

 END PROCESSING AG STRESS PERIOD DATA OPTIONS
 
 SOLVING FOR HEAD 
                                                   Max.-Head-Change                         Max.-Flux-Residual
  Residual-Control   Outer-Iter.   Inner-Iter.     Column Row Layer    Maximum-Head-Change  Column Row Layer    Maximum-Flux-Residual          L2-NORM 
          0                 1           2             4    7     1      -0.1632280383E+00       4    7    1        -0.8535161254E+01      0.2000418193E+02
          0                 2           2             4    7     1       0.1587738478E-01       4    7    1         0.8534993652E+00      0.2000368022E+01
          0                 3           2             4    7     1      -0.1081193510E-02       4    7    1        -0.5974513995E-01      0.1400240358E+00
          0                 4           1             4    7     1       0.4302169002E-04       4    7    1         0.2443578896E-02      0.5726857152E-02

    ------------------------------------------------
       NWT REQUIRED            4 OUTER ITERATIONS 
       AND A TOTAL OF          7 INNER ITERATIONS.
    ------------------------------------------------

 OUTPUT CONTROL FOR STRESS PERIOD   20   TIME STEP    1
    PRINT BUDGET
    SAVE BUDGET
    SAVE BUDGET
    SAVE HEAD FOR ALL LAYERS
 UBDSV1 SAVING "         STORAGE" ON UNIT 102 AT TIME STEP 1, STRESS PERIOD 20
 UBDSV2 SAVING "   CONSTANT HEAD" ON UNIT 102 AT TIME STEP 1, STRESS PERIOD 20
 UBDSV1 SAVING "FLOW RIGHT FACE " ON UNIT 102 AT TIME STEP 1, STRESS PERIOD 20
 UBDSV1 SAVING "FLOW FRONT FACE " ON UNIT 102 AT TIME STEP 1, STRESS PERIOD 20

  HEAD DEP BOUNDS   PERIOD   20   STEP     1
 BOUNDARY      1   LAYER   1   ROW    13   COL     1   RATE   -0.295984    
 BOUNDARY      2   LAYER   1   ROW    14   COL     9   RATE    0.285482    



 STREAM LISTING     PERIOD     20   STEP        1

 LAYER ROW COL. STREAM  RCH.  FLOW INTO     FLOW TO   FLOW OUT OF   OVRLND.     DIRECT     STREAM       STREAM     STREAM     STREAM   STREAMBED  STREAMBED
                SEG.NO.  NO.  STRM. RCH.    AQUIFER    STRM. RCH.    RUNOFF     PRECIP       ET          HEAD       DEPTH      WIDTH   CONDCTNC.   GRADIENT

   1    1    1     1     1    5.4001E+01  3.5066E-01   5.3650E+01  0.000E+00  0.000E+00  0.000E+00  1.09450E+03  1.450E+00  1.751E+01  7.879E-02  1.483E+00
   1    2    2     1     2    5.3650E+01  5.4294E-01   5.3107E+01  0.000E+00  0.000E+00  0.000E+00  1.08950E+03  1.445E+00  1.745E+01  1.222E-01  1.482E+00
   1    3    3     1     3    5.3107E+01  4.6294E-01   5.2644E+01  0.000E+00  0.000E+00  0.000E+00  1.08386E+03  1.438E+00  1.739E+01  1.043E-01  1.479E+00
   1    3    4     1     4    5.2644E+01  4.2621E-01   5.2218E+01  0.000E+00  0.000E+00  0.000E+00  1.07884E+03  1.432E+00  1.733E+01  9.616E-02  1.477E+00
   1    4    5     2     1    5.0218E+01  3.7682E-01   4.9841E+01  0.000E+00  0.000E+00  0.000E+00  1.07376E+03  1.831E+00  1.200E+01  7.800E-02  1.610E+00
   1    5    6     2     2    4.9841E+01  2.8942E-01   4.9552E+01  0.000E+00  0.000E+00  0.000E+00  1.06833E+03  1.824E+00  1.200E+01  6.000E-02  1.608E+00
   1    6    6     2     3    4.9552E+01  2.8904E-01   4.9263E+01  0.000E+00  0.000E+00  0.000E+00  1.06361E+03  1.817E+00  1.200E+01  6.000E-02  1.606E+00
   1    7    6     2     4    4.9263E+01  2.8865E-01   4.8974E+01  0.000E+00  0.000E+00  0.000E+00  1.05889E+03  1.811E+00  1.200E+01  6.000E-02  1.604E+00
   1    8    6     2     5    4.8974E+01  2.8827E-01   4.8686E+01  0.000E+00  0.000E+00  0.000E+00  1.05416E+03  1.804E+00  1.200E+01  6.000E-02  1.601E+00
   1    3    5     3     1    2.0000E+00  2.8252E-01   1.7175E+00  0.000E+00  0.000E+00  0.000E+00  1.07555E+03  1.909E+00  9.636E+00  7.227E-02  1.955E+00
   1    3    6     3     2    1.7175E+00  2.4905E-01   1.4684E+00  0.000E+00  0.000E+00  0.000E+00  1.07264E+03  1.727E+00  8.909E+00  6.682E-02  1.864E+00
   1    3    7     3     3    1.4684E+00  1.9718E-01   1.2712E+00  0.000E+00  0.000E+00  0.000E+00  1.06987E+03  1.555E+00  8.218E+00  5.547E-02  1.777E+00
   1    4    8     3     4    1.2712E+00  2.2567E-01   1.0456E+00  0.000E+00  0.000E+00  0.000E+00  1.06682E+03  1.364E+00  7.455E+00  6.709E-02  1.682E+00
   1    5    8     3     5    1.0456E+00  1.5790E-01   8.8768E-01  0.000E+00  0.000E+00  0.000E+00  1.06362E+03  1.164E+00  6.655E+00  4.991E-02  1.582E+00
   1    6    8     3     6    8.8768E-01  5.5980E-02   8.3170E-01  0.000E+00  0.000E+00  0.000E+00  1.06158E+03  1.036E+00  6.145E+00  1.844E-02  1.518E+00
   1    5   10     4     1    1.0000E+01  9.0919E-02   9.9091E+00  0.000E+00  0.000E+00  0.000E+00  1.07836E+03  6.368E-01  1.000E+01  2.500E-02  1.212E+00
   1    5    9     4     2    9.9091E+00  1.8158E-01   9.7275E+00  0.000E+00  0.000E+00  0.000E+00  1.07154E+03  6.315E-01  1.000E+01  5.000E-02  1.211E+00
   1    6    8     4     3    9.7275E+00  1.2689E-01   9.6006E+00  0.000E+00  0.000E+00  0.000E+00  1.06381E+03  6.256E-01  1.000E+01  3.500E-02  1.209E+00
   1    6    8     5     1    1.0432E+01  2.2686E-01   1.0205E+01  0.000E+00  0.000E+00  0.000E+00  1.05868E+03  6.790E-01  1.542E+01  6.166E-02  1.226E+00
   1    7    7     5     2    1.0205E+01  2.7894E-01   9.9265E+00  0.000E+00  0.000E+00  0.000E+00  1.05417E+03  6.732E-01  1.519E+01  7.594E-02  1.224E+00
   1    8    7     5     3    9.9265E+00  1.9221E-01   9.7343E+00  0.000E+00  0.000E+00  0.000E+00  1.04992E+03  6.676E-01  1.497E+01  5.241E-02  1.223E+00
   1    8    6     5     4    9.7343E+00  1.3577E-01   9.5985E+00  0.000E+00  0.000E+00  0.000E+00  1.04691E+03  6.637E-01  1.482E+01  3.706E-02  1.221E+00
   1    9    6     6     1    5.8284E+01  3.0156E-01   5.7983E+01  0.000E+00  0.000E+00  0.000E+00  1.04475E+03  2.026E+00  1.200E+01  6.000E-02  1.675E+00
   1   10    7     6     2    5.7983E+01  3.0118E-01   5.7682E+01  0.000E+00  0.000E+00  0.000E+00  1.04020E+03  2.020E+00  1.200E+01  6.000E-02  1.673E+00
   1   11    7     6     3    5.7682E+01  3.0080E-01   5.7381E+01  0.000E+00  0.000E+00  0.000E+00  1.03565E+03  2.013E+00  1.200E+01  6.000E-02  1.671E+00
   1   12    7     6     4    5.7381E+01  3.0042E-01   5.7080E+01  0.000E+00  0.000E+00  0.000E+00  1.03110E+03  2.007E+00  1.200E+01  6.000E-02  1.669E+00
   1   13    7     6     5    5.7080E+01  1.9617E-02   5.7061E+01  0.000E+00  0.000E+00  0.000E+00  1.02791E+03  2.004E+00  1.200E+01  2.400E-02  2.725E-01
   1   14    9     7     1    1.5000E+02  1.3317E+00   1.4867E+02  0.000E+00  0.000E+00  0.000E+00  1.03987E+03  2.288E+00  5.529E+01  5.593E-01  7.937E-01
   1   13    8     7     2    1.4867E+02  1.8263E+00   1.4684E+02  0.000E+00  0.000E+00  0.000E+00  1.03478E+03  2.279E+00  5.526E+01  6.148E-01  9.902E-01
   1   13    7     7     3    1.4684E+02  1.4490E+00   1.4539E+02  0.000E+00  0.000E+00  0.000E+00  1.02969E+03  2.271E+00  5.522E+01  5.585E-01  8.649E-01
   1   13    6     8     1    2.0245E+02  1.0303E+00   2.0142E+02  0.000E+00  0.000E+00  0.000E+00  1.02502E+03  3.149E+00  4.566E+01  4.653E-01  7.381E-01
   1   13    5     8     2    2.0142E+02  2.3590E-01   2.0119E+02  0.000E+00  0.000E+00  0.000E+00  1.01877E+03  3.145E+00  4.561E+01  4.648E-01  1.692E-01
   1   13    4     8     3    2.0119E+02 -2.2526E+00   2.0344E+02  0.000E+00  0.000E+00  0.000E+00  1.01253E+03  3.151E+00  4.569E+01  4.656E+00 -1.613E-01
   1   13    3     8     4    2.0344E+02 -3.4353E+00   2.0688E+02  0.000E+00  0.000E+00  0.000E+00  1.00629E+03  3.168E+00  4.593E+01  4.681E+00 -2.446E-01
   1   13    2     8     5    2.0688E+02 -2.6044E+00   2.0948E+02  0.000E+00  0.000E+00  0.000E+00  1.00006E+03  3.185E+00  4.619E+01  4.706E+00 -1.845E-01
   1   13    1     8     6    2.0948E+02 -2.0291E+00   2.1151E+02  0.000E+00  0.000E+00  0.000E+00  9.95073E+02  3.198E+00  4.638E+01  2.836E+00 -2.385E-01



 UBDSV3 SAVING "           GW ET" ON UNIT  61 AT TIME STEP 1, STRESS PERIOD 20
 UBDSV3 SAVING "    UZF RECHARGE" ON UNIT  61 AT TIME STEP 1, STRESS PERIOD 20
 UBDSV3 SAVING " SURFACE LEAKAGE" ON UNIT  61 AT TIME STEP 1, STRESS PERIOD 20
 UBDSV3 SAVING "       HORT+DUNN" ON UNIT  61 AT TIME STEP 1, STRESS PERIOD 20
 UBDSV3 SAVING "  STORAGE CHANGE" ON UNIT  61 AT TIME STEP 1, STRESS PERIOD 20


UNSATURATED ZONE PACKAGE VOLUMETRIC BUDGET FOR  TIME STEP     1 STRESS PERIOD   20
  ------------------------------------------------------------------------------



     CUMULATIVE VOLUMES      L**3       RATES FOR THIS TIME STEP      L**3/T
     ------------------                 ------------------------

           IN:                                      IN:
           ---                                      ---
        INFILTRATION =   537959936.4218          INFILTRATION =          60.8475

          OUT:                                     OUT:
          ----                                     ----
              UZF ET =   537195535.2139                UZF ET =          60.8175
        UZF RECHARGE =       73224.0000          UZF RECHARGE =       0.0000E+00

            IN - OUT =      691177.2079              IN - OUT =       3.0001E-02

          STORAGE:                                 STORAGE:
          --------                                 --------
      STORAGE CHANGE =      691172.6925        STORAGE CHANGE =       3.0001E-02

 PERCENT DISCREPANCY IS DIFFERENCE BETWEEN IN-OUT MINUS CHANGE IN STORAGE
 DIVIDED BY THE AVERAGE OF IN AND OUT TIMES 100

 PERCENT DISCREPANCY =           0.00     PERCENT DISCREPANCY =           0.00






 

            AG WELLS      PERIOD   20   STEP   1
 AG WELL      1   LAYER   1   ROW     6   COL     4   RATE    -10.0000    
 AG WELL      2   LAYER   1   ROW     6   COL     5   RATE    -10.0000    
 AG WELL      3   LAYER   1   ROW     7   COL     4   RATE    -10.0000    
 AG WELL      4   LAYER   1   ROW     7   COL     5   RATE    -10.0000    
 AG WELL      5   LAYER   1   ROW     8   COL     4   RATE    -10.0000    
 AG WELL      6   LAYER   1   ROW     8   COL     5   RATE    -10.0000    
 
 

        GW IRRIGATION     PERIOD   20   STEP   1
 AG WELL      1   ROW     6   COL     4   RATE     10.0000    
 AG WELL      2   ROW     6   COL     5   RATE     10.0000    
 AG WELL      3   ROW     7   COL     4   RATE     10.0000    
 AG WELL      4   ROW     7   COL     5   RATE     10.0000    
 AG WELL      5   ROW     8   COL     4   RATE     10.0000    
 AG WELL      6   ROW     8   COL     5   RATE     10.0000    
 
1
  VOLUMETRIC BUDGET FOR AGRICULTURAL FIELDS AT  END OF TIME STEP    1, STRESS PERIOD  20
  ------------------------------------------------------------------------------

     CUMULATIVE VOLUMES      L**3       RATES FOR THIS TIME STEP      L**3/T
     ------------------                 ------------------------

           IN:                                      IN:
           ---                                      ---
               AG WELLS  =   497690976.0000                 AG WELLS  =          60.0000
      DIVERSION SEGMENTS =           0.0000        DIVERSION SEGMENTS =           0.0000
       IRRIGATION PONDS  =           0.0000         IRRIGATION PONDS  =           0.0000
           GW IRRIGATION =           0.0000             GW IRRIGATION =           0.0000
           SW IRRIGATION =           0.0000             SW IRRIGATION =           0.0000
        SYSTEM LOSSES GW =           0.0000          SYSTEM LOSSES GW =           0.0000
        SYSTEM LOSSES SW =           0.0000          SYSTEM LOSSES SW =           0.0000

                TOTAL IN =   497690976.0000                  TOTAL IN =          60.0000

          OUT:                                     OUT:
          ----                                     ----
               AG WELLS  =           0.0000                 AG WELLS  =           0.0000
      DIVERSION SEGMENTS =           0.0000        DIVERSION SEGMENTS =           0.0000
       IRRIGATION PONDS  =           0.0000         IRRIGATION PONDS  =           0.0000
           GW IRRIGATION =   497690976.0000             GW IRRIGATION =          60.0000
           SW IRRIGATION =           0.0000             SW IRRIGATION =           0.0000
        SYSTEM LOSSES GW =           0.0000          SYSTEM LOSSES GW =           0.0000
        SYSTEM LOSSES SW =           0.0000          SYSTEM LOSSES SW =           0.0000

               TOTAL OUT =   497690976.0000                 TOTAL OUT =          60.0000

                IN - OUT =           0.0000                  IN - OUT =           0.0000

     PERCENT DISCREPANCY =           0.00         PERCENT DISCREPANCY =           0.00




 HEAD WILL BE SAVED ON UNIT   62 AT END OF TIME STEP    1, STRESS PERIOD   20
1
  VOLUMETRIC BUDGET FOR ENTIRE MODEL AT END OF TIME STEP    1, STRESS PERIOD  20
  ------------------------------------------------------------------------------

     CUMULATIVE VOLUMES      L**3       RATES FOR THIS TIME STEP      L**3/T
     ------------------                 ------------------------

           IN:                                      IN:
           ---                                      ---
             STORAGE     =   659871360.0000               STORAGE     =          58.6202
       CONSTANT HEAD     =           0.0000         CONSTANT HEAD     =           0.0000
     HEAD DEP BOUNDS     =    13561123.0000       HEAD DEP BOUNDS     =           0.2855
      STREAM LEAKAGE     =   596992384.0000        STREAM LEAKAGE     =          12.8133
        UZF RECHARGE     =       73223.9531          UZF RECHARGE     =           0.0000
               GW ET     =           0.0000                 GW ET     =           0.0000
     SURFACE LEAKAGE     =           0.0000       SURFACE LEAKAGE     =           0.0000
           AG WELLS      =           0.0000             AG WELLS      =           0.0000

                TOTAL IN =  1270498048.0000                  TOTAL IN =          71.7189

          OUT:                                     OUT:
          ----                                     ----
             STORAGE     =   252498656.0000               STORAGE     =           0.3662
       CONSTANT HEAD     =           0.0000         CONSTANT HEAD     =           0.0000
     HEAD DEP BOUNDS     =    14004942.0000       HEAD DEP BOUNDS     =           0.2960
      STREAM LEAKAGE     =   489695680.0000        STREAM LEAKAGE     =          10.3214
        UZF RECHARGE     =           0.0000          UZF RECHARGE     =           0.0000
               GW ET     =    16613170.0000                 GW ET     =           0.7356
     SURFACE LEAKAGE     =           0.0000       SURFACE LEAKAGE     =           0.0000
           AG WELLS      =   497690976.0000             AG WELLS      =          60.0000

               TOTAL OUT =  1270503424.0000                 TOTAL OUT =          71.7192

                IN - OUT =       -5376.0000                  IN - OUT =      -2.1362E-04

     PERCENT DISCREPANCY =          -0.00         PERCENT DISCREPANCY =          -0.00






         TIME SUMMARY AT END OF TIME STEP    1 IN STRESS PERIOD   20
                    SECONDS     MINUTES      HOURS       DAYS        YEARS
                    -----------------------------------------------------------
   TIME STEP LENGTH  87667.      1461.1      24.352      1.0147     2.77799E-03
 STRESS PERIOD TIME  87667.      1461.1      24.352      1.0147     2.77799E-03
         TOTAL TIME 4.75142E+07 7.91903E+05  13198.      549.93      1.5056    
1
 
 SOLVING FOR HEAD 
                                                   Max.-Head-Change                         Max.-Flux-Residual
  Residual-Control   Outer-Iter.   Inner-Iter.     Column Row Layer    Maximum-Head-Change  Column Row Layer    Maximum-Flux-Residual          L2-NORM 
          0                 1           2             5    8     1       0.4338316128E-01       5    8    1         0.2357390131E+01      0.5397746509E+01
          0                 2           2             4    7     1      -0.1890798234E+00       5    8    1        -0.1023068819E+02      0.2497638812E+02
          0                 3           2             4    7     1       0.1287544795E-01       5    8    1         0.7160577255E+00      0.1748185925E+01
          0                 4           2             4    7     1      -0.5123270130E-03       5    8    1        -0.2927896535E-01      0.7149143950E-01
          0                 5           1             4    7     1       0.6317212765E-05       5    8    1         0.3705194235E-03      0.9064588153E-03

    ------------------------------------------------
       NWT REQUIRED            5 OUTER ITERATIONS 
       AND A TOTAL OF          9 INNER ITERATIONS.
    ------------------------------------------------

 NO OUTPUT CONTROL FOR STRESS PERIOD   20   TIME STEP    2
 
 SOLVING FOR HEAD 
                                                   Max.-Head-Change                         Max.-Flux-Residual
  Residual-Control   Outer-Iter.   Inner-Iter.     Column Row Layer    Maximum-Head-Change  Column Row Layer    Maximum-Flux-Residual          L2-NORM 
          0                 1           2             5    8     1       0.4692931355E-01       5    8    1         0.2552410175E+01      0.5796702275E+01
          0                 2           2             4    7     1      -0.1891902866E+00       5    8    1        -0.1025018995E+02      0.2500952405E+02
          0                 3           2             4    7     1       0.1288207325E-01       5    8    1         0.7173812118E+00      0.1750393590E+01
          0                 4           2             4    7     1      -0.5125906293E-03       5    8    1        -0.2933386987E-01      0.7158189603E-01
          0                 5           1             4    7     1       0.6320463324E-05       5    8    1         0.3712677837E-03      0.9073855393E-03

    ------------------------------------------------
       NWT REQUIRED            5 OUTER ITERATIONS 
       AND A TOTAL OF          9 INNER ITERATIONS.
    ------------------------------------------------

 NO OUTPUT CONTROL FOR STRESS PERIOD   20   TIME STEP    3
 
 SOLVING FOR HEAD 
                                                   Max.-Head-Change                         Max.-Flux-Residual
  Residual-Control   Outer-Iter.   Inner-Iter.     Column Row Layer    Maximum-Head-Change  Column Row Layer    Maximum-Flux-Residual          L2-NORM 
          0                 1           2             5    8     1       0.5028317273E-01       5    8    1         0.2736681959E+01      0.6185115846E+01
          0                 2           2             4    7     1      -0.1893045490E+00       5    8    1        -0.1026861688E+02      0.2504157830E+02
          0                 3           2             4    7     1       0.1288985592E-01       5    8    1         0.7186784901E+00      0.1752647943E+01
          0                 4           2             4    7     1      -0.5129003002E-03       5    8    1        -0.2938764701E-01      0.7167448497E-01
          0                 5           1             4    7     1       0.6324281686E-05       5    8    1         0.3719980891E-03      0.9083950996E-03

    ------------------------------------------------
       NWT REQUIRED            5 OUTER ITERATIONS 
       AND A TOTAL OF          9 INNER ITERATIONS.
    ------------------------------------------------

 NO OUTPUT CONTROL FOR STRESS PERIOD   20   TIME STEP    4
 
 SOLVING FOR HEAD 
                                                   Max.-Head-Change                         Max.-Flux-Residual
  Residual-Control   Outer-Iter.   Inner-Iter.     Column Row Layer    Maximum-Head-Change  Column Row Layer    Maximum-Flux-Residual          L2-NORM 
          0                 1           2             5    8     1       0.5345835816E-01       5    8    1         0.2910973704E+01      0.6560847207E+01
          0                 2           2             4    7     1      -0.1894222188E+00       5    8    1        -0.1028604578E+02      0.2507259577E+02
          0                 3           2             4    7     1       0.1289787046E-01       5    8    1         0.7199053901E+00      0.1754830436E+01
          0                 4           2             4    7     1      -0.5132191976E-03       5    8    1        -0.2943849507E-01      0.7176431725E-01
          0                 5           1             4    7     1       0.6328213630E-05       5    8    1         0.3726878513E-03      0.9094168164E-03

    ------------------------------------------------
       NWT REQUIRED            5 OUTER ITERATIONS 
       AND A TOTAL OF          9 INNER ITERATIONS.
    ------------------------------------------------

 NO OUTPUT CONTROL FOR STRESS PERIOD   20   TIME STEP    5
 
 SOLVING FOR HEAD 
                                                   Max.-Head-Change                         Max.-Flux-Residual
  Residual-Control   Outer-Iter.   Inner-Iter.     Column Row Layer    Maximum-Head-Change  Column Row Layer    Maximum-Flux-Residual          L2-NORM 
          0                 1           2             5    8     1       0.5646700007E-01       5    8    1         0.3075969585E+01      0.6923214919E+01
          0                 2           2             4    7     1      -0.1895428893E+00       5    8    1        -0.1030254509E+02      0.2510261999E+02
          0                 3           2             4    7     1       0.1290608919E-01       5    8    1         0.7210667400E+00      0.1756943927E+01
          0                 4           2             4    7     1      -0.5135462210E-03       5    8    1        -0.2948661536E-01      0.7185147823E-01
          0                 5           1             4    7     1       0.6332246052E-05       5    8    1         0.3733398660E-03      0.9104444283E-03

    ------------------------------------------------
       NWT REQUIRED            5 OUTER ITERATIONS 
       AND A TOTAL OF          9 INNER ITERATIONS.
    ------------------------------------------------

 NO OUTPUT CONTROL FOR STRESS PERIOD   20   TIME STEP    6
 
 SOLVING FOR HEAD 
                                                   Max.-Head-Change                         Max.-Flux-Residual
  Residual-Control   Outer-Iter.   Inner-Iter.     Column Row Layer    Maximum-Head-Change  Column Row Layer    Maximum-Flux-Residual          L2-NORM 
          0                 1           2             5    8     1       0.5932039074E-01       5    8    1         0.3232306411E+01      0.7272211354E+01
          0                 2           2             4    7     1      -0.1896662186E+00       5    8    1        -0.1031817849E+02      0.2513169330E+02
          0                 3           2             4    7     1       0.1291448884E-01       5    8    1         0.7221670345E+00      0.1758990827E+01
          0                 4           2             4    7     1      -0.5138804439E-03       5    8    1        -0.2953219531E-01      0.7193599786E-01
          0                 5           1             4    7     1       0.6336367302E-05       5    8    1         0.3739567499E-03      0.9114691025E-03

    ------------------------------------------------
       NWT REQUIRED            5 OUTER ITERATIONS 
       AND A TOTAL OF          9 INNER ITERATIONS.
    ------------------------------------------------

 NO OUTPUT CONTROL FOR STRESS PERIOD   20   TIME STEP    7
 
 SOLVING FOR HEAD 
                                                   Max.-Head-Change                         Max.-Flux-Residual
  Residual-Control   Outer-Iter.   Inner-Iter.     Column Row Layer    Maximum-Head-Change  Column Row Layer    Maximum-Flux-Residual          L2-NORM 
          0                 1           2             5    8     1       0.6202921187E-01       5    8    1         0.3380585380E+01      0.7608147783E+01
          0                 2           2             4    7     1      -0.1897918602E+00       5    8    1        -0.1033300610E+02      0.2515985661E+02
          0                 3           2             4    7     1       0.1292304580E-01       5    8    1         0.7232105142E+00      0.1760973989E+01
          0                 4           2             4    7     1      -0.5142209277E-03       5    8    1        -0.2957541152E-01      0.7201797814E-01
          0                 5           1             4    7     1       0.6340565954E-05       5    8    1         0.3745409545E-03      0.9124875581E-03

    ------------------------------------------------
       NWT REQUIRED            5 OUTER ITERATIONS 
       AND A TOTAL OF          9 INNER ITERATIONS.
    ------------------------------------------------

 NO OUTPUT CONTROL FOR STRESS PERIOD   20   TIME STEP    8
 
 SOLVING FOR HEAD 
                                                   Max.-Head-Change                         Max.-Flux-Residual
  Residual-Control   Outer-Iter.   Inner-Iter.     Column Row Layer    Maximum-Head-Change  Column Row Layer    Maximum-Flux-Residual          L2-NORM 
          0                 1           2             5    8     1       0.6460316159E-01       5    8    1         0.3521352479E+01      0.7931479105E+01
          0                 2           2             4    7     1      -0.1899194917E+00       5    8    1        -0.1034708252E+02      0.2518714756E+02
          0                 3           2             4    7     1       0.1293173815E-01       5    8    1         0.7242010289E+00      0.1762895659E+01
          0                 4           2             4    7     1      -0.5145667988E-03       5    8    1        -0.2961642420E-01      0.7209746297E-01
          0                 5           1             4    7     1       0.6344830247E-05       5    8    1         0.3750947085E-03      0.9134944274E-03

    ------------------------------------------------
       NWT REQUIRED            5 OUTER ITERATIONS 
       AND A TOTAL OF          9 INNER ITERATIONS.
    ------------------------------------------------

 NO OUTPUT CONTROL FOR STRESS PERIOD   20   TIME STEP    9
 
 SOLVING FOR HEAD 
                                                   Max.-Head-Change                         Max.-Flux-Residual
  Residual-Control   Outer-Iter.   Inner-Iter.     Column Row Layer    Maximum-Head-Change  Column Row Layer    Maximum-Flux-Residual          L2-NORM 
          0                 1           2             5    8     1       0.6705102113E-01       5    8    1         0.3655102551E+01      0.8242778312E+01
          0                 2           2             4    7     1      -0.1900488203E+00       5    8    1        -0.1036045723E+02      0.2521360787E+02
          0                 3           2             4    7     1       0.1294054594E-01       5    8    1         0.7251420801E+00      0.1764759286E+01
          0                 4           2             4    7     1      -0.5149172643E-03       5    8    1        -0.2965538017E-01      0.7217463394E-01
          0                 5           1             4    7     1       0.6349151892E-05       5    8    1         0.3756201186E-03      0.9144910732E-03

    ------------------------------------------------
       NWT REQUIRED            5 OUTER ITERATIONS 
       AND A TOTAL OF          9 INNER ITERATIONS.
    ------------------------------------------------

 NO OUTPUT CONTROL FOR STRESS PERIOD   20   TIME STEP   10
 
 SOLVING FOR HEAD 
                                                   Max.-Head-Change                         Max.-Flux-Residual
  Residual-Control   Outer-Iter.   Inner-Iter.     Column Row Layer    Maximum-Head-Change  Column Row Layer    Maximum-Flux-Residual          L2-NORM 
          0                 1           2             5    8     1       0.6938104846E-01       5    8    1         0.3782299205E+01      0.8542546269E+01
          0                 2           2             4    7     1      -0.1901795538E+00       5    8    1        -0.1037317660E+02      0.2523926760E+02
          0                 3           2             4    7     1       0.1294944929E-01       5    8    1         0.7260369293E+00      0.1766566688E+01
          0                 4           2             4    7     1      -0.5152715325E-03       5    8    1        -0.2969241446E-01      0.7224953157E-01
          0                 5           1             4    7     1       0.6353519910E-05       5    8    1         0.3761190028E-03      0.9154740527E-03

    ------------------------------------------------
       NWT REQUIRED            5 OUTER ITERATIONS 
       AND A TOTAL OF          9 INNER ITERATIONS.
    ------------------------------------------------

 NO OUTPUT CONTROL FOR STRESS PERIOD   20   TIME STEP   11
 
 SOLVING FOR HEAD 
                                                   Max.-Head-Change                         Max.-Flux-Residual
  Residual-Control   Outer-Iter.   Inner-Iter.     Column Row Layer    Maximum-Head-Change  Column Row Layer    Maximum-Flux-Residual          L2-NORM 
          0                 1           2             5    8     1       0.7160098583E-01       5    8    1         0.3903378031E+01      0.8831301541E+01
          0                 2           2             4    7     1      -0.1903114419E+00       5    8    1        -0.1038528419E+02      0.2526416196E+02
          0                 3           2             4    7     1       0.1295843116E-01       5    8    1         0.7268886531E+00      0.1768317142E+01
          0                 4           2             4    7     1      -0.5156289257E-03       5    8    1        -0.2972765556E-01      0.7232180435E-01
          0                 5           1             4    7     1       0.6357926574E-05       5    8    1         0.3765931697E-03      0.9164134052E-03

    ------------------------------------------------
       NWT REQUIRED            5 OUTER ITERATIONS 
       AND A TOTAL OF          9 INNER ITERATIONS.
    ------------------------------------------------

 NO OUTPUT CONTROL FOR STRESS PERIOD   20   TIME STEP   12
 
 SOLVING FOR HEAD 
                                                   Max.-Head-Change                         Max.-Flux-Residual
  Residual-Control   Outer-Iter.   Inner-Iter.     Column Row Layer    Maximum-Head-Change  Column Row Layer    Maximum-Flux-Residual          L2-NORM 
          0                 1           2             5    8     1       0.7371785257E-01       5    8    1         0.4018732755E+01      0.9109563109E+01
          0                 2           2             4    7     1      -0.1904442403E+00       5    8    1        -0.1039681938E+02      0.2528832233E+02
          0                 3           2             4    7     1       0.1296747492E-01       5    8    1         0.7277000274E+00      0.1770014736E+01
          0                 4           2             4    7     1      -0.5159887821E-03       5    8    1        -0.2976121900E-01      0.7239179372E-01
          0                 5           1             4    7     1       0.6362364041E-05       5    8    1         0.3770442006E-03      0.9173219476E-03

    ------------------------------------------------
       NWT REQUIRED            5 OUTER ITERATIONS 
       AND A TOTAL OF          9 INNER ITERATIONS.
    ------------------------------------------------

 NO OUTPUT CONTROL FOR STRESS PERIOD   20   TIME STEP   13
 
 SOLVING FOR HEAD 
                                                   Max.-Head-Change                         Max.-Flux-Residual
  Residual-Control   Outer-Iter.   Inner-Iter.     Column Row Layer    Maximum-Head-Change  Column Row Layer    Maximum-Flux-Residual          L2-NORM 
          0                 1           2             5    8     1       0.7573827302E-01       5    8    1         0.4128735169E+01      0.9377848193E+01
          0                 2           2             4    7     1      -0.1905777355E+00       5    8    1        -0.1040781933E+02      0.2531178053E+02
          0                 3           2             4    7     1       0.1297656603E-01       5    8    1         0.7284736756E+00      0.1771662036E+01
          0                 4           2             4    7     1      -0.5163505231E-03       5    8    1        -0.2979321408E-01      0.7245963159E-01
          0                 5           1             4    7     1       0.6366824360E-05       5    8    1         0.3774736456E-03      0.9182019136E-03

    ------------------------------------------------
       NWT REQUIRED            5 OUTER ITERATIONS 
       AND A TOTAL OF          9 INNER ITERATIONS.
    ------------------------------------------------

 NO OUTPUT CONTROL FOR STRESS PERIOD   20   TIME STEP   14
 
 SOLVING FOR HEAD 
                                                   Max.-Head-Change                         Max.-Flux-Residual
  Residual-Control   Outer-Iter.   Inner-Iter.     Column Row Layer    Maximum-Head-Change  Column Row Layer    Maximum-Flux-Residual          L2-NORM 
          0                 1           2             5    8     1       0.7766822775E-01       5    8    1         0.4233720909E+01      0.9636640983E+01
          0                 2           2             4    7     1      -0.1907117042E+00       5    8    1        -0.1041831762E+02      0.2533456467E+02
          0                 3           2             4    7     1       0.1298568930E-01       5    8    1         0.7292119658E+00      0.1773261980E+01
          0                 4           2             4    7     1      -0.5167135443E-03       5    8    1        -0.2982373945E-01      0.7252552884E-01
          0                 5           1             4    7     1       0.6371300809E-05       5    8    1         0.3778828711E-03      0.9190603552E-03

    ------------------------------------------------
       NWT REQUIRED            5 OUTER ITERATIONS 
       AND A TOTAL OF          9 INNER ITERATIONS.
    ------------------------------------------------

 NO OUTPUT CONTROL FOR STRESS PERIOD   20   TIME STEP   15
 
 SOLVING FOR HEAD 
                                                   Max.-Head-Change                         Max.-Flux-Residual
  Residual-Control   Outer-Iter.   Inner-Iter.     Column Row Layer    Maximum-Head-Change  Column Row Layer    Maximum-Flux-Residual          L2-NORM 
          0                 1           2             5    8     1       0.7951324988E-01       5    8    1         0.4334000075E+01      0.9886396253E+01
          0                 2           2             4    7     1      -0.1908459521E+00       5    8    1        -0.1042834526E+02      0.2535670115E+02
          0                 3           2             4    7     1       0.1299483151E-01       5    8    1         0.7299167427E+00      0.1774816037E+01
          0                 4           2             4    7     1      -0.5170773192E-03       5    8    1        -0.2985283866E-01      0.7258950603E-01
          0                 5           1             4    7     1       0.6375786331E-05       5    8    1         0.3782702358E-03      0.9198952657E-03

    ------------------------------------------------
       NWT REQUIRED            5 OUTER ITERATIONS 
       AND A TOTAL OF          9 INNER ITERATIONS.
    ------------------------------------------------

 NO OUTPUT CONTROL FOR STRESS PERIOD   20   TIME STEP   16
 
 SOLVING FOR HEAD 
                                                   Max.-Head-Change                         Max.-Flux-Residual
  Residual-Control   Outer-Iter.   Inner-Iter.     Column Row Layer    Maximum-Head-Change  Column Row Layer    Maximum-Flux-Residual          L2-NORM 
          0                 1           2             5    8     1       0.8127874641E-01       5    8    1         0.4429875227E+01      0.1012756911E+02
          0                 2           2             4    7     1      -0.1909803132E+00       5    8    1        -0.1043793250E+02      0.2537821731E+02
          0                 3           2             4    7     1       0.1300398135E-01       5    8    1         0.7305893747E+00      0.1776324022E+01
          0                 4           2             4    7     1      -0.5174413981E-03       5    8    1        -0.2988049568E-01      0.7265134854E-01
          0                 5           1             4    7     1       0.6380275438E-05       5    8    1         0.3786306918E-03      0.9206871552E-03

    ------------------------------------------------
       NWT REQUIRED            5 OUTER ITERATIONS 
       AND A TOTAL OF          9 INNER ITERATIONS.
    ------------------------------------------------

 NO OUTPUT CONTROL FOR STRESS PERIOD   20   TIME STEP   17
 
 SOLVING FOR HEAD 
                                                   Max.-Head-Change                         Max.-Flux-Residual
  Residual-Control   Outer-Iter.   Inner-Iter.     Column Row Layer    Maximum-Head-Change  Column Row Layer    Maximum-Flux-Residual          L2-NORM 
          0                 1           2             5    8     1       0.8296943730E-01       5    8    1         0.4521611055E+01      0.1036056649E+02
          0                 2           2             4    7     1      -0.1911146089E+00       5    8    1        -0.1044710581E+02      0.2539913736E+02
          0                 3           2             4    7     1       0.1301312666E-01       5    8    1         0.7312329248E+00      0.1777789505E+01
          0                 4           2             4    7     1      -0.5178052973E-03       5    8    1        -0.2990695279E-01      0.7271138096E-01
          0                 5           1             4    7     1       0.6384762304E-05       5    8    1         0.3789752291E-03      0.9214520300E-03

    ------------------------------------------------
       NWT REQUIRED            5 OUTER ITERATIONS 
       AND A TOTAL OF          9 INNER ITERATIONS.
    ------------------------------------------------

 NO OUTPUT CONTROL FOR STRESS PERIOD   20   TIME STEP   18
 
 SOLVING FOR HEAD 
                                                   Max.-Head-Change                         Max.-Flux-Residual
  Residual-Control   Outer-Iter.   Inner-Iter.     Column Row Layer    Maximum-Head-Change  Column Row Layer    Maximum-Flux-Residual          L2-NORM 
          0                 1           2             5    8     1       0.8458984193E-01       5    8    1         0.4609460125E+01      0.1058579776E+02
          0                 2           2             4    7     1      -0.1912487008E+00       5    8    1        -0.1045589045E+02      0.2541948522E+02
          0                 3           2             4    7     1       0.1302225803E-01       5    8    1         0.7318491677E+00      0.1779214878E+01
          0                 4           2             4    7     1      -0.5181686423E-03       5    8    1        -0.2993228327E-01      0.7276976950E-01
          0                 5           1             4    7     1       0.6389242561E-05       5    8    1         0.3793048106E-03      0.9221998032E-03

    ------------------------------------------------
       NWT REQUIRED            5 OUTER ITERATIONS 
       AND A TOTAL OF          9 INNER ITERATIONS.
    ------------------------------------------------

 NO OUTPUT CONTROL FOR STRESS PERIOD   20   TIME STEP   19
 
 SOLVING FOR HEAD 
                                                   Max.-Head-Change                         Max.-Flux-Residual
  Residual-Control   Outer-Iter.   Inner-Iter.     Column Row Layer    Maximum-Head-Change  Column Row Layer    Maximum-Flux-Residual          L2-NORM 
          0                 1           2             5    8     1       0.8614429073E-01       5    8    1         0.4693664596E+01      0.1080362589E+02
          0                 2           2             4    7     1      -0.1913824356E+00       5    8    1        -0.1046431063E+02      0.2543928296E+02
          0                 3           2             4    7     1       0.1303136502E-01       5    8    1         0.7324398059E+00      0.1780601688E+01
          0                 4           2             4    7     1      -0.5185310175E-03       5    8    1        -0.2995655748E-01      0.7282657700E-01
          0                 5           1             4    7     1       0.6393711057E-05       5    8    1         0.3796204035E-03      0.9229214049E-03

    ------------------------------------------------
       NWT REQUIRED            5 OUTER ITERATIONS 
       AND A TOTAL OF          9 INNER ITERATIONS.
    ------------------------------------------------

 NO OUTPUT CONTROL FOR STRESS PERIOD   20   TIME STEP   20
 
 SOLVING FOR HEAD 
                                                   Max.-Head-Change                         Max.-Flux-Residual
  Residual-Control   Outer-Iter.   Inner-Iter.     Column Row Layer    Maximum-Head-Change  Column Row Layer    Maximum-Flux-Residual          L2-NORM 
          0                 1           2             5    8     1       0.8763652142E-01       5    8    1         0.4774433350E+01      0.1101440608E+02
          0                 2           2             4    7     1      -0.1915156860E+00       5    8    1        -0.1047238725E+02      0.2545855201E+02
          0                 3           2             4    7     1       0.1304043898E-01       5    8    1         0.7330063082E+00      0.1781951434E+01
          0                 4           2             4    7     1      -0.5188920778E-03       5    8    1        -0.2997983613E-01      0.7288186481E-01
          0                 5           1             4    7     1       0.6398163087E-05       5    8    1         0.3799228011E-03      0.9236273378E-03

    ------------------------------------------------
       NWT REQUIRED            5 OUTER ITERATIONS 
       AND A TOTAL OF          9 INNER ITERATIONS.
    ------------------------------------------------

 NO OUTPUT CONTROL FOR STRESS PERIOD   20   TIME STEP   21
 
 SOLVING FOR HEAD 
                                                   Max.-Head-Change                         Max.-Flux-Residual
  Residual-Control   Outer-Iter.   Inner-Iter.     Column Row Layer    Maximum-Head-Change  Column Row Layer    Maximum-Flux-Residual          L2-NORM 
          0                 1           2             5    8     1       0.8907014365E-01       5    8    1         0.4851968021E+01      0.1121847936E+02
          0                 2           2             4    7     1      -0.1916483490E+00       5    8    1        -0.1048014047E+02      0.2547731331E+02
          0                 3           2             4    7     1       0.1304947288E-01       5    8    1         0.7335500924E+00      0.1783265585E+01
          0                 4           2             4    7     1      -0.5192515448E-03       5    8    1        -0.3000217781E-01      0.7293569307E-01
          0                 5           1             4    7     1       0.6402595178E-05       5    8    1         0.3802127762E-03      0.9243142173E-03

    ------------------------------------------------
       NWT REQUIRED            5 OUTER ITERATIONS 
       AND A TOTAL OF          9 INNER ITERATIONS.
    ------------------------------------------------

 NO OUTPUT CONTROL FOR STRESS PERIOD   20   TIME STEP   22
 
 SOLVING FOR HEAD 
                                                   Max.-Head-Change                         Max.-Flux-Residual
  Residual-Control   Outer-Iter.   Inner-Iter.     Column Row Layer    Maximum-Head-Change  Column Row Layer    Maximum-Flux-Residual          L2-NORM 
          0                 1           2             5    8     1       0.9044851263E-01       5    8    1         0.4926455776E+01      0.1141614734E+02
          0                 2           2             4    7     1      -0.1917803049E+00       5    8    1        -0.1048758900E+02      0.2549558522E+02
          0                 3           2             4    7     1       0.1305845857E-01       5    8    1         0.7340724735E+00      0.1784545428E+01
          0                 4           2             4    7     1      -0.5196090940E-03       5    8    1        -0.3002363683E-01      0.7298811418E-01
          0                 5           1             4    7     1       0.6407003970E-05       5    8    1         0.3804911244E-03      0.9249846295E-03

    ------------------------------------------------
       NWT REQUIRED            5 OUTER ITERATIONS 
       AND A TOTAL OF          9 INNER ITERATIONS.
    ------------------------------------------------

 NO OUTPUT CONTROL FOR STRESS PERIOD   20   TIME STEP   23
 
 SOLVING FOR HEAD 
                                                   Max.-Head-Change                         Max.-Flux-Residual
  Residual-Control   Outer-Iter.   Inner-Iter.     Column Row Layer    Maximum-Head-Change  Column Row Layer    Maximum-Flux-Residual          L2-NORM 
          0                 1           2             5    8     1       0.9177488442E-01       5    8    1         0.4998078405E+01      0.1160771780E+02
          0                 2           2             4    7     1      -0.1919114702E+00       5    8    1        -0.1049475102E+02      0.2551338692E+02
          0                 3           2             4    7     1       0.1306739039E-01       5    8    1         0.7345739668E+00      0.1785791679E+01
          0                 4           2             4    7     1      -0.5199644997E-03       5    8    1        -0.3004416036E-01      0.7303909604E-01
          0                 5           1             4    7     1       0.6411386214E-05       5    8    1         0.3807520429E-03      0.9256304652E-03

    ------------------------------------------------
       NWT REQUIRED            5 OUTER ITERATIONS 
       AND A TOTAL OF          9 INNER ITERATIONS.
    ------------------------------------------------

 NO OUTPUT CONTROL FOR STRESS PERIOD   20   TIME STEP   24
 
 SOLVING FOR HEAD 
                                                   Max.-Head-Change                         Max.-Flux-Residual
  Residual-Control   Outer-Iter.   Inner-Iter.     Column Row Layer    Maximum-Head-Change  Column Row Layer    Maximum-Flux-Residual          L2-NORM 
          0                 1           2             5    8     1       0.9305201029E-01       5    8    1         0.5066989101E+01      0.1179345576E+02
          0                 2           2             4    7     1      -0.1920417310E+00       5    8    1        -0.1050164185E+02      0.2553073504E+02
          0                 3           2             4    7     1       0.1307626057E-01       5    8    1         0.7350563434E+00      0.1787006068E+01
          0                 4           2             4    7     1      -0.5203174534E-03       5    8    1        -0.3006388952E-01      0.7308876474E-01
          0                 5           1             4    7     1       0.6415738551E-05       5    8    1         0.3810020737E-03      0.9262640469E-03

    ------------------------------------------------
       NWT REQUIRED            5 OUTER ITERATIONS 
       AND A TOTAL OF          9 INNER ITERATIONS.
    ------------------------------------------------

 NO OUTPUT CONTROL FOR STRESS PERIOD   20   TIME STEP   25
 
 SOLVING FOR HEAD 
                                                   Max.-Head-Change                         Max.-Flux-Residual
  Residual-Control   Outer-Iter.   Inner-Iter.     Column Row Layer    Maximum-Head-Change  Column Row Layer    Maximum-Flux-Residual          L2-NORM 
          0                 1           2             5    8     1       0.9428287052E-01       5    8    1         0.5133353978E+01      0.1197364468E+02
          0                 2           2             4    7     1      -0.1921710223E+00       5    8    1        -0.1050827811E+02      0.2554764731E+02
          0                 3           2             4    7     1       0.1308506470E-01       5    8    1         0.7355208997E+00      0.1788189946E+01
          0                 4           2             4    7     1      -0.5206677783E-03       5    8    1        -0.3008288980E-01      0.7313718517E-01
          0                 5           1             4    7     1       0.6420058067E-05       5    8    1         0.3812428538E-03      0.9268737048E-03

    ------------------------------------------------
       NWT REQUIRED            5 OUTER ITERATIONS 
       AND A TOTAL OF          9 INNER ITERATIONS.
    ------------------------------------------------

 NO OUTPUT CONTROL FOR STRESS PERIOD   20   TIME STEP   26
 
 SOLVING FOR HEAD 
                                                   Max.-Head-Change                         Max.-Flux-Residual
  Residual-Control   Outer-Iter.   Inner-Iter.     Column Row Layer    Maximum-Head-Change  Column Row Layer    Maximum-Flux-Residual          L2-NORM 
          0                 1           2             5    8     1       0.9546968310E-01       5    8    1         0.5197296299E+01      0.1214851628E+02
          0                 2           2             4    7     1      -0.1922992733E+00       5    8    1        -0.1051467211E+02      0.2556413894E+02
          0                 3           2             4    7     1       0.1309379795E-01       5    8    1         0.7359684984E+00      0.1789344376E+01
          0                 4           2             4    7     1      -0.5210152830E-03       5    8    1        -0.3010119653E-01      0.7318440134E-01
          0                 5           1             4    7     1       0.6424342970E-05       5    8    1         0.3814748843E-03      0.9274719132E-03

    ------------------------------------------------
       NWT REQUIRED            5 OUTER ITERATIONS 
       AND A TOTAL OF          9 INNER ITERATIONS.
    ------------------------------------------------

 NO OUTPUT CONTROL FOR STRESS PERIOD   20   TIME STEP   27
 
 SOLVING FOR HEAD 
                                                   Max.-Head-Change                         Max.-Flux-Residual
  Residual-Control   Outer-Iter.   Inner-Iter.     Column Row Layer    Maximum-Head-Change  Column Row Layer    Maximum-Flux-Residual          L2-NORM 
          0                 1           2             5    8     1       0.9661520925E-01       5    8    1         0.5258970151E+01      0.1231831336E+02
          0                 2           2             4    7     1      -0.1924264075E+00       5    8    1        -0.1052083928E+02      0.2558022544E+02
          0                 3           2             4    7     1       0.1310245511E-01       5    8    1         0.7364002181E+00      0.1790470445E+01
          0                 4           2             4    7     1      -0.5213597608E-03       5    8    1        -0.3011885380E-01      0.7323045755E-01
          0                 5           1             4    7     1       0.6428590573E-05       5    8    1         0.3816986430E-03      0.9280560902E-03

    ------------------------------------------------
       NWT REQUIRED            5 OUTER ITERATIONS 
       AND A TOTAL OF          9 INNER ITERATIONS.
    ------------------------------------------------

 NO OUTPUT CONTROL FOR STRESS PERIOD   20   TIME STEP   28
 
 SOLVING FOR HEAD 
                                                   Max.-Head-Change                         Max.-Flux-Residual
  Residual-Control   Outer-Iter.   Inner-Iter.     Column Row Layer    Maximum-Head-Change  Column Row Layer    Maximum-Flux-Residual          L2-NORM 
          0                 1           2             5    8     1       0.9772146477E-01       5    8    1         0.5318487447E+01      0.1248325939E+02
          0                 2           2             4    7     1      -0.1925523688E+00       5    8    1        -0.1052679080E+02      0.2559592148E+02
          0                 3           2             4    7     1       0.1311103238E-01       5    8    1         0.7368168421E+00      0.1791569180E+01
          0                 4           2             4    7     1      -0.5217010592E-03       5    8    1        -0.3013589368E-01      0.7327539585E-01
          0                 5           1             4    7     1       0.6432798746E-05       5    8    1         0.3819145852E-03      0.9286251272E-03

    ------------------------------------------------
       NWT REQUIRED            5 OUTER ITERATIONS 
       AND A TOTAL OF          9 INNER ITERATIONS.
    ------------------------------------------------

 NO OUTPUT CONTROL FOR STRESS PERIOD   20   TIME STEP   29
 
 SOLVING FOR HEAD 
                                                   Max.-Head-Change                         Max.-Flux-Residual
  Residual-Control   Outer-Iter.   Inner-Iter.     Column Row Layer    Maximum-Head-Change  Column Row Layer    Maximum-Flux-Residual          L2-NORM 
          0                 1           2             5    8     1       0.9878641268E-01       5    8    1         0.5375960529E+01      0.1266075909E+02
          0                 2           2             4    7     1      -0.1926771144E+00       5    8    1        -0.1053253780E+02      0.2561132030E+02
          0                 3           2             4    7     1       0.1311952684E-01       5    8    1         0.7372191611E+00      0.1792650455E+01
          0                 4           2             4    7     1      -0.5220390629E-03       5    8    1        -0.3015234841E-01      0.7331960033E-01
          0                 5           1             4    7     1       0.6436966594E-05       5    8    1         0.3821231257E-03      0.9292502720E-03

    ------------------------------------------------
       NWT REQUIRED            5 OUTER ITERATIONS 
       AND A TOTAL OF          9 INNER ITERATIONS.
    ------------------------------------------------

 NO OUTPUT CONTROL FOR STRESS PERIOD   20   TIME STEP   30



 STREAM LISTING     PERIOD     20   STEP       30

 LAYER ROW COL. STREAM  RCH.  FLOW INTO     FLOW TO   FLOW OUT OF   OVRLND.     DIRECT     STREAM       STREAM     STREAM     STREAM   STREAMBED  STREAMBED
                SEG.NO.  NO.  STRM. RCH.    AQUIFER    STRM. RCH.    RUNOFF     PRECIP       ET          HEAD       DEPTH      WIDTH   CONDCTNC.   GRADIENT

   1    1    1     1     1    4.3035E+01  3.1412E-01   4.2721E+01  0.000E+00  0.000E+00  0.000E+00  1.09440E+03  1.353E+00  1.604E+01  7.216E-02  1.451E+00
   1    2    2     1     2    4.2721E+01  4.8658E-01   4.2235E+01  0.000E+00  0.000E+00  0.000E+00  1.08941E+03  1.350E+00  1.598E+01  1.118E-01  1.450E+00
   1    3    3     1     3    4.2235E+01  4.1507E-01   4.1819E+01  0.000E+00  0.000E+00  0.000E+00  1.08377E+03  1.347E+00  1.591E+01  9.548E-02  1.449E+00
   1    3    4     1     4    4.1819E+01  3.8230E-01   4.1437E+01  0.000E+00  0.000E+00  0.000E+00  1.07875E+03  1.344E+00  1.586E+01  8.800E-02  1.448E+00
   1    4    5     2     1    3.9437E+01  3.5748E-01   3.9080E+01  0.000E+00  0.000E+00  0.000E+00  1.07352E+03  1.583E+00  1.200E+01  7.800E-02  1.528E+00
   1    5    6     2     2    3.9080E+01  2.7453E-01   3.8805E+01  0.000E+00  0.000E+00  0.000E+00  1.06808E+03  1.575E+00  1.200E+01  6.000E-02  1.525E+00
   1    6    6     2     3    3.8805E+01  2.7413E-01   3.8531E+01  0.000E+00  0.000E+00  0.000E+00  1.06336E+03  1.569E+00  1.200E+01  6.000E-02  1.523E+00
   1    7    6     2     4    3.8531E+01  2.7372E-01   3.8257E+01  0.000E+00  0.000E+00  0.000E+00  1.05864E+03  1.562E+00  1.200E+01  6.000E-02  1.521E+00
   1    8    6     2     5    3.8257E+01  2.7332E-01   3.7984E+01  0.000E+00  0.000E+00  0.000E+00  1.05391E+03  1.555E+00  1.200E+01  6.000E-02  1.518E+00
   1    3    5     3     1    2.0000E+00  2.8252E-01   1.7175E+00  0.000E+00  0.000E+00  0.000E+00  1.07555E+03  1.909E+00  9.636E+00  7.227E-02  1.955E+00
   1    3    6     3     2    1.7175E+00  2.4905E-01   1.4684E+00  0.000E+00  0.000E+00  0.000E+00  1.07264E+03  1.727E+00  8.909E+00  6.682E-02  1.864E+00
   1    3    7     3     3    1.4684E+00  1.9718E-01   1.2712E+00  0.000E+00  0.000E+00  0.000E+00  1.06987E+03  1.555E+00  8.218E+00  5.547E-02  1.777E+00
   1    4    8     3     4    1.2712E+00  2.2567E-01   1.0456E+00  0.000E+00  0.000E+00  0.000E+00  1.06682E+03  1.364E+00  7.455E+00  6.709E-02  1.682E+00
   1    5    8     3     5    1.0456E+00  1.5790E-01   8.8768E-01  0.000E+00  0.000E+00  0.000E+00  1.06362E+03  1.164E+00  6.655E+00  4.991E-02  1.582E+00
   1    6    8     3     6    8.8768E-01  5.5980E-02   8.3170E-01  0.000E+00  0.000E+00  0.000E+00  1.06158E+03  1.036E+00  6.145E+00  1.844E-02  1.518E+00
   1    5   10     4     1    1.0000E+01  9.0919E-02   9.9091E+00  0.000E+00  0.000E+00  0.000E+00  1.07836E+03  6.368E-01  1.000E+01  2.500E-02  1.212E+00
   1    5    9     4     2    9.9091E+00  1.8158E-01   9.7275E+00  0.000E+00  0.000E+00  0.000E+00  1.07154E+03  6.315E-01  1.000E+01  5.000E-02  1.211E+00
   1    6    8     4     3    9.7275E+00  1.2689E-01   9.6006E+00  0.000E+00  0.000E+00  0.000E+00  1.06381E+03  6.256E-01  1.000E+01  3.500E-02  1.209E+00
   1    6    8     5     1    1.0432E+01  2.2686E-01   1.0205E+01  0.000E+00  0.000E+00  0.000E+00  1.05868E+03  6.790E-01  1.542E+01  6.166E-02  1.226E+00
   1    7    7     5     2    1.0205E+01  2.7894E-01   9.9265E+00  0.000E+00  0.000E+00  0.000E+00  1.05417E+03  6.732E-01  1.519E+01  7.594E-02  1.224E+00
   1    8    7     5     3    9.9265E+00  1.9221E-01   9.7343E+00  0.000E+00  0.000E+00  0.000E+00  1.04992E+03  6.676E-01  1.497E+01  5.241E-02  1.223E+00
   1    8    6     5     4    9.7343E+00  1.3577E-01   9.5985E+00  0.000E+00  0.000E+00  0.000E+00  1.04691E+03  6.637E-01  1.482E+01  3.706E-02  1.221E+00
   1    9    6     6     1    4.7583E+01  2.8760E-01   4.7295E+01  0.000E+00  0.000E+00  0.000E+00  1.04452E+03  1.793E+00  1.200E+01  6.000E-02  1.598E+00
   1   10    7     6     2    4.7295E+01  2.8721E-01   4.7008E+01  0.000E+00  0.000E+00  0.000E+00  1.03997E+03  1.787E+00  1.200E+01  6.000E-02  1.596E+00
   1   11    7     6     3    4.7008E+01  2.8681E-01   4.6721E+01  0.000E+00  0.000E+00  0.000E+00  1.03542E+03  1.780E+00  1.200E+01  6.000E-02  1.593E+00
   1   12    7     6     4    4.6721E+01  2.8642E-01   4.6434E+01  0.000E+00  0.000E+00  0.000E+00  1.03086E+03  1.774E+00  1.200E+01  6.000E-02  1.591E+00
   1   13    7     6     5    4.6434E+01  1.4298E-02   4.6420E+01  0.000E+00  0.000E+00  0.000E+00  1.02768E+03  1.770E+00  1.200E+01  2.400E-02  1.986E-01
   1   14    9     7     1    1.5000E+02  1.3325E+00   1.4867E+02  0.000E+00  0.000E+00  0.000E+00  1.03987E+03  2.288E+00  5.529E+01  5.593E-01  7.941E-01
   1   13    8     7     2    1.4867E+02  1.8298E+00   1.4684E+02  0.000E+00  0.000E+00  0.000E+00  1.03478E+03  2.279E+00  5.526E+01  6.148E-01  9.921E-01
   1   13    7     7     3    1.4684E+02  1.4555E+00   1.4538E+02  0.000E+00  0.000E+00  0.000E+00  1.02969E+03  2.271E+00  5.522E+01  5.585E-01  8.688E-01
   1   13    6     8     1    1.9180E+02  9.8971E-01   1.9081E+02  0.000E+00  0.000E+00  0.000E+00  1.02496E+03  3.086E+00  4.475E+01  4.560E-01  7.235E-01
   1   13    5     8     2    1.9081E+02  2.1045E-01   1.9060E+02  0.000E+00  0.000E+00  0.000E+00  1.01871E+03  3.082E+00  4.469E+01  4.554E-01  1.540E-01
   1   13    4     8     3    1.9060E+02 -2.4468E+00   1.9305E+02  0.000E+00  0.000E+00  0.000E+00  1.01246E+03  3.089E+00  4.479E+01  4.564E+00 -1.787E-01
   1   13    3     8     4    1.9305E+02 -3.5767E+00   1.9663E+02  0.000E+00  0.000E+00  0.000E+00  1.00623E+03  3.107E+00  4.505E+01  4.591E+00 -2.597E-01
   1   13    2     8     5    1.9663E+02 -2.7402E+00   1.9937E+02  0.000E+00  0.000E+00  0.000E+00  1.00000E+03  3.126E+00  4.533E+01  4.619E+00 -1.978E-01
   1   13    1     8     6    1.9937E+02 -2.1019E+00   2.0147E+02  0.000E+00  0.000E+00  0.000E+00  9.95015E+02  3.140E+00  4.553E+01  2.784E+00 -2.517E-01





UNSATURATED ZONE PACKAGE VOLUMETRIC BUDGET FOR  TIME STEP    30 STRESS PERIOD   20
  ------------------------------------------------------------------------------



     CUMULATIVE VOLUMES      L**3       RATES FOR THIS TIME STEP      L**3/T
     ------------------                 ------------------------

           IN:                                      IN:
           ---                                      ---
        INFILTRATION =   692578260.6773          INFILTRATION =          60.8175

          OUT:                                     OUT:
          ----                                     ----
              UZF ET =   691813885.3444                UZF ET =          60.8175
        UZF RECHARGE =       73224.0000          UZF RECHARGE =       0.0000E+00

            IN - OUT =      691151.3329              IN - OUT =       0.0000E+00

          STORAGE:                                 STORAGE:
          --------                                 --------
      STORAGE CHANGE =      691146.5297        STORAGE CHANGE =       3.1123E-17

 PERCENT DISCREPANCY IS DIFFERENCE BETWEEN IN-OUT MINUS CHANGE IN STORAGE
 DIVIDED BY THE AVERAGE OF IN AND OUT TIMES 100

 PERCENT DISCREPANCY =           0.00     PERCENT DISCREPANCY =           0.00






1
  VOLUMETRIC BUDGET FOR AGRICULTURAL FIELDS AT  END OF TIME STEP   30, STRESS PERIOD  20
  ------------------------------------------------------------------------------

     CUMULATIVE VOLUMES      L**3       RATES FOR THIS TIME STEP      L**3/T
     ------------------                 ------------------------

           IN:                                      IN:
           ---                                      ---
               AG WELLS  =   650154176.0000                 AG WELLS  =          59.9700
      DIVERSION SEGMENTS =           0.0000        DIVERSION SEGMENTS =           0.0000
       IRRIGATION PONDS  =           0.0000         IRRIGATION PONDS  =           0.0000
           GW IRRIGATION =           0.0000             GW IRRIGATION =           0.0000
           SW IRRIGATION =           0.0000             SW IRRIGATION =           0.0000
        SYSTEM LOSSES GW =           0.0000          SYSTEM LOSSES GW =           0.0000
        SYSTEM LOSSES SW =           0.0000          SYSTEM LOSSES SW =           0.0000

                TOTAL IN =   650154176.0000                  TOTAL IN =          59.9700

          OUT:                                     OUT:
          ----                                     ----
               AG WELLS  =           0.0000                 AG WELLS  =           0.0000
      DIVERSION SEGMENTS =           0.0000        DIVERSION SEGMENTS =           0.0000
       IRRIGATION PONDS  =           0.0000         IRRIGATION PONDS  =           0.0000
           GW IRRIGATION =   650154176.0000             GW IRRIGATION =          59.9700
           SW IRRIGATION =           0.0000             SW IRRIGATION =           0.0000
        SYSTEM LOSSES GW =           0.0000          SYSTEM LOSSES GW =           0.0000
        SYSTEM LOSSES SW =           0.0000          SYSTEM LOSSES SW =           0.0000

               TOTAL OUT =   650154176.0000                 TOTAL OUT =          59.9700

                IN - OUT =           0.0000                  IN - OUT =           0.0000

     PERCENT DISCREPANCY =           0.00         PERCENT DISCREPANCY =           0.00



1
  VOLUMETRIC BUDGET FOR ENTIRE MODEL AT END OF TIME STEP   30, STRESS PERIOD  20
  ------------------------------------------------------------------------------

     CUMULATIVE VOLUMES      L**3       RATES FOR THIS TIME STEP      L**3/T
     ------------------                 ------------------------

           IN:                                      IN:
           ---                                      ---
             STORAGE     =   807543424.0000               STORAGE     =          58.9191
       CONSTANT HEAD     =           0.0000         CONSTANT HEAD     =           0.0000
     HEAD DEP BOUNDS     =    14286979.0000       HEAD DEP BOUNDS     =           0.2855
      STREAM LEAKAGE     =   629570112.0000        STREAM LEAKAGE     =          12.4330
        UZF RECHARGE     =       73223.9531          UZF RECHARGE     =           0.0000
               GW ET     =           0.0000                 GW ET     =           0.0000
     SURFACE LEAKAGE     =           0.0000       SURFACE LEAKAGE     =           0.0000
           AG WELLS      =           0.0000             AG WELLS      =           0.0000

                TOTAL IN =  1451473664.0000                  TOTAL IN =          71.6377

          OUT:                                     OUT:
          ----                                     ----
             STORAGE     =   253407872.0000               STORAGE     =           0.2823
       CONSTANT HEAD     =           0.0000         CONSTANT HEAD     =           0.0000
     HEAD DEP BOUNDS     =    14756401.0000       HEAD DEP BOUNDS     =           0.2953
      STREAM LEAKAGE     =   515597792.0000        STREAM LEAKAGE     =          10.8656
        UZF RECHARGE     =           0.0000          UZF RECHARGE     =           0.0000
               GW ET     =    17562398.0000                 GW ET     =           0.2245
     SURFACE LEAKAGE     =           0.0000       SURFACE LEAKAGE     =           0.0000
           AG WELLS      =   650154176.0000             AG WELLS      =          59.9700

               TOTAL OUT =  1451478528.0000                 TOTAL OUT =          71.6376

                IN - OUT =       -4864.0000                  IN - OUT =       3.8147E-05

     PERCENT DISCREPANCY =          -0.00         PERCENT DISCREPANCY =           0.00






         TIME SUMMARY AT END OF TIME STEP   30 IN STRESS PERIOD   20
                    SECONDS     MINUTES      HOURS       DAYS        YEARS
                    -----------------------------------------------------------
   TIME STEP LENGTH  87667.      1461.1      24.352      1.0147     2.77799E-03
 STRESS PERIOD TIME 2.63000E+06  43833.      730.56      30.440     8.33397E-02
         TOTAL TIME 5.00565E+07 8.34276E+05  13905.      579.36      1.5862    
1
1
                            STRESS PERIOD NO.   21, LENGTH =   2630000.    
                            -----------------------------------------------

                              NUMBER OF TIME STEPS =    30

                               MULTIPLIER FOR DELT =     1.000

                            INITIAL TIME STEP SIZE =   87666.66    

 REUSING NON-PARAMETER GHB CELLS FROM LAST STRESS PERIOD

      2 GHB CELLS

 REUSING STREAM SEGMENT DATA FROM LAST STRESS PERIOD



            AREAL INFILTRATION RATE
 READING ON UNIT   19 WITH FORMAT: (FREE)              

            1           2           3           4           5           6           7           8           9          10
 ........................................................................................................................
   1   1.0000E-10  2.0000E-10   0.000       0.000       0.000       0.000       0.000       0.000       0.000       0.000    
   2   2.0000E-10  1.0000E-10  2.0000E-10   0.000       0.000      8.0000E-10  8.0000E-10  5.0000E-10   0.000       0.000    
   3    0.000      5.0000E-10  1.0000E-10  1.0000E-10  8.0000E-10  8.0000E-10  5.0000E-10  5.0000E-10   0.000       0.000    
   4   8.0000E-10  5.0000E-10  1.0000E-10  1.0000E-10  1.0000E-10  1.0000E-10  1.0000E-10  1.0000E-10  2.0000E-10   0.000    
   5   8.0000E-10  5.0000E-10  1.0000E-10  1.0000E-10  1.0000E-10  1.0000E-10  1.0000E-10  1.0000E-10  1.0000E-10  1.0000E-10
   6   8.0000E-10  5.0000E-10  5.0000E-10  2.0000E-10  2.0000E-10  1.0000E-10  1.0000E-10  1.0000E-10  1.0000E-10  5.0000E-10
   7   8.0000E-10  5.0000E-10  5.0000E-10  2.0000E-10  2.0000E-10  1.0000E-10  1.0000E-10  2.0000E-10  2.0000E-10   0.000    
   8    0.000      5.0000E-10  5.0000E-10  2.0000E-10  2.0000E-10  1.0000E-10  1.0000E-10  2.0000E-10  5.0000E-10   0.000    
   9    0.000      5.0000E-10  5.0000E-10  2.0000E-10  2.0000E-10  1.0000E-10  1.0000E-10  2.0000E-10  5.0000E-10   0.000    
  10    0.000      5.0000E-10  5.0000E-10  2.0000E-10  2.0000E-10  1.0000E-10  1.0000E-10  2.0000E-10  5.0000E-10  8.0000E-10
  11    0.000      1.0000E-10  1.0000E-10  1.0000E-10  1.0000E-10  1.0000E-10  1.0000E-10  2.0000E-10  5.0000E-10   0.000    
  12   1.0000E-10  1.0000E-10  1.0000E-10  1.0000E-10  1.0000E-10  1.0000E-10  1.0000E-10  1.0000E-10  2.0000E-10   0.000    
  13   1.0000E-10  1.0000E-10  2.0000E-10  2.0000E-10  2.0000E-10  2.0000E-10  2.0000E-10  1.0000E-10  1.0000E-10   0.000    
  14    0.000      2.0000E-10  5.0000E-10  5.0000E-10  5.0000E-10  5.0000E-10  5.0000E-10  2.0000E-10  1.0000E-10   0.000    
  15    0.000       0.000      8.0000E-10  8.0000E-10  8.0000E-10  8.0000E-10   0.000       0.000       0.000       0.000    

                  ET RATE =  3.250000E-07

 USING ET EXTINCTION DEPTH FROM PREVIOUS STRESS PERIOD. CURRENT PERIOD IS:      21

 USING EXTINCTION WATER CONTENT FROM PREVIOUS STRESS PERIOD. CURRENT PERIOD IS:      21

 USING AIR ENTRY PRESSURE FROM PREVIOUS STRESS PERIOD. CURRENT PERIOD IS:      21

 USING ROOT PRESSURE HEAD FROM PREVIOUS STRESS PERIOD. CURRENT PERIOD IS:      21

 USING ROOT ACTIVITY FROM PREVIOUS STRESS PERIOD. CURRENT PERIOD IS:      21

 PROCESSING AG STRESS PERIOD DATA

 READING AG STRESS PERIOD DATA

 READING IRRIGATION WELL

 NO IRRPOND OR REUSING IRRPOND DATA FROM LAST STRESS PERIOD

 END PROCESSING AG STRESS PERIOD DATA OPTIONS
 
 SOLVING FOR HEAD 
                                                   Max.-Head-Change                         Max.-Flux-Residual
  Residual-Control   Outer-Iter.   Inner-Iter.     Column Row Layer    Maximum-Head-Change  Column Row Layer    Maximum-Flux-Residual          L2-NORM 
          0                 1           2             4    7     1      -0.8813878705E-01       4    7    1        -0.4636271282E+01      0.1039645354E+02
          0                 2           2             4    7     1       0.8573321068E-02       4    7    1         0.4636150011E+00      0.1039785003E+01
          0                 3           2             4    7     1      -0.5838131364E-03       4    7    1        -0.3245317883E-01      0.7282981658E-01
          0                 4           1             4    7     1       0.2323046343E-04       4    7    1         0.1327336332E-02      0.2985525378E-02

    ------------------------------------------------
       NWT REQUIRED            4 OUTER ITERATIONS 
       AND A TOTAL OF          7 INNER ITERATIONS.
    ------------------------------------------------

 NO OUTPUT CONTROL FOR STRESS PERIOD   21   TIME STEP    1
 
 SOLVING FOR HEAD 
                                                   Max.-Head-Change                         Max.-Flux-Residual
  Residual-Control   Outer-Iter.   Inner-Iter.     Column Row Layer    Maximum-Head-Change  Column Row Layer    Maximum-Flux-Residual          L2-NORM 
          0                 1           2             5    8     1       0.9979882895E-01       5    8    1         0.5428962858E+01      0.1286576893E+02
          0                 2           2             5    7     1      -0.1580097216E+00       5    8    1        -0.8662829236E+01      0.2104079347E+02
          0                 3           2             5    7     1       0.1075976648E-01       5    8    1         0.6063923090E+00      0.1472839979E+01
          0                 4           2             5    7     1      -0.4281416961E-03       5    8    1        -0.2480150780E-01      0.6023930112E-01
          0                 5           1             5    7     1       0.5279178787E-05       5    8    1         0.3143115036E-03      0.7634214289E-03

    ------------------------------------------------
       NWT REQUIRED            5 OUTER ITERATIONS 
       AND A TOTAL OF          9 INNER ITERATIONS.
    ------------------------------------------------

 NO OUTPUT CONTROL FOR STRESS PERIOD   21   TIME STEP    2
 
 SOLVING FOR HEAD 
                                                   Max.-Head-Change                         Max.-Flux-Residual
  Residual-Control   Outer-Iter.   Inner-Iter.     Column Row Layer    Maximum-Head-Change  Column Row Layer    Maximum-Flux-Residual          L2-NORM 
          0                 1           2             5    8     1       0.9980765477E-01       5    8    1         0.5428016001E+01      0.1290572661E+02
          0                 2           2             5    7     1      -0.1580708456E+00       5    8    1        -0.8662734530E+01      0.2104655432E+02
          0                 3           2             5    7     1       0.1076288458E-01       5    8    1         0.6063275246E+00      0.1473100819E+01
          0                 4           2             5    7     1      -0.4282657710E-03       5    8    1        -0.2479885804E-01      0.6024996637E-01
          0                 5           1             5    7     1       0.5280708797E-05       5    8    1         0.3142779278E-03      0.7635521595E-03

    ------------------------------------------------
       NWT REQUIRED            5 OUTER ITERATIONS 
       AND A TOTAL OF          9 INNER ITERATIONS.
    ------------------------------------------------

 NO OUTPUT CONTROL FOR STRESS PERIOD   21   TIME STEP    3
 
 SOLVING FOR HEAD 
                                                   Max.-Head-Change                         Max.-Flux-Residual
  Residual-Control   Outer-Iter.   Inner-Iter.     Column Row Layer    Maximum-Head-Change  Column Row Layer    Maximum-Flux-Residual          L2-NORM 
          0                 1           2             5    8     1       0.9984093629E-01       5    8    1         0.5428474258E+01      0.1294690131E+02
          0                 2           2             4    7     1      -0.1581671717E+00       5    8    1        -0.8662780333E+01      0.2105229563E+02
          0                 3           2             4    7     1       0.1076943182E-01       5    8    1         0.6063307487E+00      0.1473502725E+01
          0                 4           2             4    7     1      -0.4285262987E-03       5    8    1        -0.2479898981E-01      0.6026640891E-01
          0                 5           1             4    7     1       0.5283914550E-05       5    8    1         0.3142795888E-03      0.7637603168E-03

    ------------------------------------------------
       NWT REQUIRED            5 OUTER ITERATIONS 
       AND A TOTAL OF          9 INNER ITERATIONS.
    ------------------------------------------------

 NO OUTPUT CONTROL FOR STRESS PERIOD   21   TIME STEP    4
 
 SOLVING FOR HEAD 
                                                   Max.-Head-Change                         Max.-Flux-Residual
  Residual-Control   Outer-Iter.   Inner-Iter.     Column Row Layer    Maximum-Head-Change  Column Row Layer    Maximum-Flux-Residual          L2-NORM 
          0                 1           2             5    8     1       0.9989609671E-01       5    8    1         0.5430190718E+01      0.1298902119E+02
          0                 2           2             4    7     1      -0.1582630476E+00       5    8    1        -0.8662951955E+01      0.2105801156E+02
          0                 3           2             4    7     1       0.1077595987E-01       5    8    1         0.6063427788E+00      0.1473902846E+01
          0                 4           2             4    7     1      -0.4287860593E-03       5    8    1        -0.2479948177E-01      0.6028277603E-01
          0                 5           1             4    7     1       0.5287117166E-05       5    8    1         0.3142858156E-03      0.7639682505E-03

    ------------------------------------------------
       NWT REQUIRED            5 OUTER ITERATIONS 
       AND A TOTAL OF          9 INNER ITERATIONS.
    ------------------------------------------------

 NO OUTPUT CONTROL FOR STRESS PERIOD   21   TIME STEP    5
 
 SOLVING FOR HEAD 
                                                   Max.-Head-Change                         Max.-Flux-Residual
  Residual-Control   Outer-Iter.   Inner-Iter.     Column Row Layer    Maximum-Head-Change  Column Row Layer    Maximum-Flux-Residual          L2-NORM 
          0                 1           2             5    8     1       0.9997110306E-01       5    8    1         0.5433049258E+01      0.1303188469E+02
          0                 2           2             4    7     1      -0.1583564361E+00       5    8    1        -0.8663237783E+01      0.2106370061E+02
          0                 3           2             4    7     1       0.1078231855E-01       5    8    1         0.6063628046E+00      0.1474301080E+01
          0                 4           2             4    7     1      -0.4290390805E-03       5    8    1        -0.2480030075E-01      0.6029906586E-01
          0                 5           1             4    7     1       0.5290237115E-05       5    8    1         0.3142962216E-03      0.7641757059E-03

    ------------------------------------------------
       NWT REQUIRED            5 OUTER ITERATIONS 
       AND A TOTAL OF          9 INNER ITERATIONS.
    ------------------------------------------------

 NO OUTPUT CONTROL FOR STRESS PERIOD   21   TIME STEP    6
 
 SOLVING FOR HEAD 
                                                   Max.-Head-Change                         Max.-Flux-Residual
  Residual-Control   Outer-Iter.   Inner-Iter.     Column Row Layer    Maximum-Head-Change  Column Row Layer    Maximum-Flux-Residual          L2-NORM 
          0                 1           2             5    8     1       0.1000642902E+00       5    8    1         0.5436942549E+01      0.1307531695E+02
          0                 2           2             4    7     1      -0.1584474426E+00       5    8    1        -0.8663627091E+01      0.2106935552E+02
          0                 3           2             4    7     1       0.1078851505E-01       5    8    1         0.6063900711E+00      0.1474696920E+01
          0                 4           2             4    7     1      -0.4292856485E-03       5    8    1        -0.2480141587E-01      0.6031525682E-01
          0                 5           1             4    7     1       0.5293277310E-05       5    8    1         0.3143103295E-03      0.7643816998E-03

    ------------------------------------------------
       NWT REQUIRED            5 OUTER ITERATIONS 
       AND A TOTAL OF          9 INNER ITERATIONS.
    ------------------------------------------------

 NO OUTPUT CONTROL FOR STRESS PERIOD   21   TIME STEP    7
 
 SOLVING FOR HEAD 
                                                   Max.-Head-Change                         Max.-Flux-Residual
  Residual-Control   Outer-Iter.   Inner-Iter.     Column Row Layer    Maximum-Head-Change  Column Row Layer    Maximum-Flux-Residual          L2-NORM 
          0                 1           2             5    8     1       0.1001738981E+00       5    8    1         0.5441774059E+01      0.1311918396E+02
          0                 2           2             4    7     1      -0.1585361423E+00       5    8    1        -0.8664110224E+01      0.2107497290E+02
          0                 3           2             4    7     1       0.1079455449E-01       5    8    1         0.6064239005E+00      0.1475090127E+01
          0                 4           2             4    7     1      -0.4295259665E-03       5    8    1        -0.2480279946E-01      0.6033133953E-01
          0                 5           1             4    7     1       0.5296240214E-05       5    8    1         0.3143278896E-03      0.7645839475E-03

    ------------------------------------------------
       NWT REQUIRED            5 OUTER ITERATIONS 
       AND A TOTAL OF          9 INNER ITERATIONS.
    ------------------------------------------------

 NO OUTPUT CONTROL FOR STRESS PERIOD   21   TIME STEP    8
 
 SOLVING FOR HEAD 
                                                   Max.-Head-Change                         Max.-Flux-Residual
  Residual-Control   Outer-Iter.   Inner-Iter.     Column Row Layer    Maximum-Head-Change  Column Row Layer    Maximum-Flux-Residual          L2-NORM 
          0                 1           2             5    8     1       0.1002981401E+00       5    8    1         0.5447457325E+01      0.1316340312E+02
          0                 2           2             4    7     1      -0.1586226078E+00       5    8    1        -0.8664678529E+01      0.2108055378E+02
          0                 3           2             4    7     1       0.1080044181E-01       5    8    1         0.6064636938E+00      0.1475480777E+01
          0                 4           2             4    7     1      -0.4297602317E-03       5    8    1        -0.2480442695E-01      0.6034731781E-01
          0                 5           1             4    7     1       0.5299129301E-05       5    8    1         0.3143485130E-03      0.7647867869E-03

    ------------------------------------------------
       NWT REQUIRED            5 OUTER ITERATIONS 
       AND A TOTAL OF          9 INNER ITERATIONS.
    ------------------------------------------------

 NO OUTPUT CONTROL FOR STRESS PERIOD   21   TIME STEP    9
 
 SOLVING FOR HEAD 
                                                   Max.-Head-Change                         Max.-Flux-Residual
  Residual-Control   Outer-Iter.   Inner-Iter.     Column Row Layer    Maximum-Head-Change  Column Row Layer    Maximum-Flux-Residual          L2-NORM 
          0                 1           2             5    8     1       0.1004355998E+00       5    8    1         0.5453905053E+01      0.1320790303E+02
          0                 2           2             4    7     1      -0.1587069233E+00       5    8    1        -0.8665323279E+01      0.2108609549E+02
          0                 3           2             4    7     1       0.1080618274E-01       5    8    1         0.6065088376E+00      0.1475868686E+01
          0                 4           2             4    7     1      -0.4299886719E-03       5    8    1        -0.2480627328E-01      0.6036318445E-01
          0                 5           1             4    7     1       0.5301945578E-05       5    8    1         0.3143718973E-03      0.7649883684E-03

    ------------------------------------------------
       NWT REQUIRED            5 OUTER ITERATIONS 
       AND A TOTAL OF          9 INNER ITERATIONS.
    ------------------------------------------------

 NO OUTPUT CONTROL FOR STRESS PERIOD   21   TIME STEP   10
 
 SOLVING FOR HEAD 
                                                   Max.-Head-Change                         Max.-Flux-Residual
  Residual-Control   Outer-Iter.   Inner-Iter.     Column Row Layer    Maximum-Head-Change  Column Row Layer    Maximum-Flux-Residual          L2-NORM 
          0                 1           2             5    8     1       0.1005848831E+00       5    8    1         0.5461038011E+01      0.1325257343E+02
          0                 2           2             4    7     1      -0.1587891686E+00       5    8    1        -0.8666036553E+01      0.2109159353E+02
          0                 3           2             4    7     1       0.1081178273E-01       5    8    1         0.6065587772E+00      0.1476253552E+01
          0                 4           2             4    7     1      -0.4302115037E-03       5    8    1        -0.2480831576E-01      0.6037892731E-01
          0                 5           1             4    7     1       0.5304693414E-05       5    8    1         0.3143977858E-03      0.7651872987E-03

    ------------------------------------------------
       NWT REQUIRED            5 OUTER ITERATIONS 
       AND A TOTAL OF          9 INNER ITERATIONS.
    ------------------------------------------------

 NO OUTPUT CONTROL FOR STRESS PERIOD   21   TIME STEP   11
 
 SOLVING FOR HEAD 
                                                   Max.-Head-Change                         Max.-Flux-Residual
  Residual-Control   Outer-Iter.   Inner-Iter.     Column Row Layer    Maximum-Head-Change  Column Row Layer    Maximum-Flux-Residual          L2-NORM 
          0                 1           2             5    8     1       0.1007447257E+00       5    8    1         0.5468783925E+01      0.1329736490E+02
          0                 2           2             4    7     1      -0.1588694211E+00       5    8    1        -0.8666811122E+01      0.2109704743E+02
          0                 3           2             4    7     1       0.1081724704E-01       5    8    1         0.6066130068E+00      0.1476635291E+01
          0                 4           2             4    7     1      -0.4304289363E-03       5    8    1        -0.2481053370E-01      0.6039453982E-01
          0                 5           1             4    7     1       0.5307374377E-05       5    8    1         0.3144258740E-03      0.7653861950E-03

    ------------------------------------------------
       NWT REQUIRED            5 OUTER ITERATIONS 
       AND A TOTAL OF          9 INNER ITERATIONS.
    ------------------------------------------------

 NO OUTPUT CONTROL FOR STRESS PERIOD   21   TIME STEP   12
 
 SOLVING FOR HEAD 
                                                   Max.-Head-Change                         Max.-Flux-Residual
  Residual-Control   Outer-Iter.   Inner-Iter.     Column Row Layer    Maximum-Head-Change  Column Row Layer    Maximum-Flux-Residual          L2-NORM 
          0                 1           2             5    8     1       0.1009139819E+00       5    8    1         0.5477077247E+01      0.1334219761E+02
          0                 2           2             4    7     1      -0.1589478569E+00       5    8    1        -0.8667262800E+01      0.2110245380E+02
          0                 3           2             4    7     1       0.1082258767E-01       5    8    1         0.6066446375E+00      0.1477013721E+01
          0                 4           2             4    7     1      -0.4306414478E-03       5    8    1        -0.2481182734E-01      0.6041001789E-01
          0                 5           1             4    7     1       0.5309994852E-05       5    8    1         0.3144422760E-03      0.7655809186E-03

    ------------------------------------------------
       NWT REQUIRED            5 OUTER ITERATIONS 
       AND A TOTAL OF          9 INNER ITERATIONS.
    ------------------------------------------------

 NO OUTPUT CONTROL FOR STRESS PERIOD   21   TIME STEP   13
 
 SOLVING FOR HEAD 
                                                   Max.-Head-Change                         Max.-Flux-Residual
  Residual-Control   Outer-Iter.   Inner-Iter.     Column Row Layer    Maximum-Head-Change  Column Row Layer    Maximum-Flux-Residual          L2-NORM 
          0                 1           2             5    8     1       0.1011050158E+00       5    8    1         0.5486261591E+01      0.1338704171E+02
          0                 2           2             4    7     1      -0.1590241964E+00       5    8    1        -0.8668559035E+01      0.2110781521E+02
          0                 3           2             4    7     1       0.1082778553E-01       5    8    1         0.6067353749E+00      0.1477389005E+01
          0                 4           2             4    7     1      -0.4308482778E-03       5    8    1        -0.2481553851E-01      0.6042536769E-01
          0                 5           1             4    7     1       0.5312545206E-05       5    8    1         0.3144893169E-03      0.7657767871E-03

    ------------------------------------------------
       NWT REQUIRED            5 OUTER ITERATIONS 
       AND A TOTAL OF          9 INNER ITERATIONS.
    ------------------------------------------------

 NO OUTPUT CONTROL FOR STRESS PERIOD   21   TIME STEP   14
 
 SOLVING FOR HEAD 
                                                   Max.-Head-Change                         Max.-Flux-Residual
  Residual-Control   Outer-Iter.   Inner-Iter.     Column Row Layer    Maximum-Head-Change  Column Row Layer    Maximum-Flux-Residual          L2-NORM 
          0                 1           2             5    8     1       0.1012967743E+00       5    8    1         0.5495863321E+01      0.1343181167E+02
          0                 2           2             4    7     1      -0.1590988253E+00       5    8    1        -0.8669519179E+01      0.2111312623E+02
          0                 3           2             4    7     1       0.1083286694E-01       5    8    1         0.6068025920E+00      0.1477760760E+01
          0                 4           2             4    7     1      -0.4310504746E-03       5    8    1        -0.2481828766E-01      0.6044057379E-01
          0                 5           1             4    7     1       0.5315038320E-05       5    8    1         0.3145241456E-03      0.7659680650E-03

    ------------------------------------------------
       NWT REQUIRED            5 OUTER ITERATIONS 
       AND A TOTAL OF          9 INNER ITERATIONS.
    ------------------------------------------------

 NO OUTPUT CONTROL FOR STRESS PERIOD   21   TIME STEP   15
 
 SOLVING FOR HEAD 
                                                   Max.-Head-Change                         Max.-Flux-Residual
  Residual-Control   Outer-Iter.   Inner-Iter.     Column Row Layer    Maximum-Head-Change  Column Row Layer    Maximum-Flux-Residual          L2-NORM 
          0                 1           2             5    8     1       0.1014945528E+00       5    8    1         0.5505818965E+01      0.1347647659E+02
          0                 2           2             4    7     1      -0.1591717224E+00       5    8    1        -0.8670514716E+01      0.2111839136E+02
          0                 3           2             4    7     1       0.1083783044E-01       5    8    1         0.6068722862E+00      0.1478129304E+01
          0                 4           2             4    7     1      -0.4312479794E-03       5    8    1        -0.2482113813E-01      0.6045564715E-01
          0                 5           1             4    7     1       0.5317473635E-05       5    8    1         0.3145602664E-03      0.7661595641E-03

    ------------------------------------------------
       NWT REQUIRED            5 OUTER ITERATIONS 
       AND A TOTAL OF          9 INNER ITERATIONS.
    ------------------------------------------------

 NO OUTPUT CONTROL FOR STRESS PERIOD   21   TIME STEP   16
 
 SOLVING FOR HEAD 
                                                   Max.-Head-Change                         Max.-Flux-Residual
  Residual-Control   Outer-Iter.   Inner-Iter.     Column Row Layer    Maximum-Head-Change  Column Row Layer    Maximum-Flux-Residual          L2-NORM 
          0                 1           2             5    8     1       0.1016976346E+00       5    8    1         0.5516086918E+01      0.1352093851E+02
          0                 2           2             4    7     1      -0.1592429454E+00       5    8    1        -0.8671541484E+01      0.2112359781E+02
          0                 3           2             4    7     1       0.1084267996E-01       5    8    1         0.6069441662E+00      0.1478493737E+01
          0                 4           2             4    7     1      -0.4314409487E-03       5    8    1        -0.2482407799E-01      0.6047055242E-01
          0                 5           1             4    7     1       0.5319852942E-05       5    8    1         0.3145975400E-03      0.7663487393E-03

    ------------------------------------------------
       NWT REQUIRED            5 OUTER ITERATIONS 
       AND A TOTAL OF          9 INNER ITERATIONS.
    ------------------------------------------------

 NO OUTPUT CONTROL FOR STRESS PERIOD   21   TIME STEP   17
 
 SOLVING FOR HEAD 
                                                   Max.-Head-Change                         Max.-Flux-Residual
  Residual-Control   Outer-Iter.   Inner-Iter.     Column Row Layer    Maximum-Head-Change  Column Row Layer    Maximum-Flux-Residual          L2-NORM 
          0                 1           2             5    8     1       0.1019052076E+00       5    8    1         0.5526621534E+01      0.1356519774E+02
          0                 2           2             4    7     1      -0.1593125519E+00       5    8    1        -0.8672594919E+01      0.2112875670E+02
          0                 3           2             4    7     1       0.1084741941E-01       5    8    1         0.6070179125E+00      0.1478854842E+01
          0                 4           2             4    7     1      -0.4316295386E-03       5    8    1        -0.2482709419E-01      0.6048532098E-01
          0                 5           1             4    7     1       0.5322178594E-05       5    8    1         0.3146357610E-03      0.7665358402E-03

    ------------------------------------------------
       NWT REQUIRED            5 OUTER ITERATIONS 
       AND A TOTAL OF          9 INNER ITERATIONS.
    ------------------------------------------------

 NO OUTPUT CONTROL FOR STRESS PERIOD   21   TIME STEP   18
 
 SOLVING FOR HEAD 
                                                   Max.-Head-Change                         Max.-Flux-Residual
  Residual-Control   Outer-Iter.   Inner-Iter.     Column Row Layer    Maximum-Head-Change  Column Row Layer    Maximum-Flux-Residual          L2-NORM 
          0                 1           2             5    8     1       0.1021169619E+00       5    8    1         0.5537404765E+01      0.1360924733E+02
          0                 2           2             4    7     1      -0.1593935687E+00       5    8    1        -0.8673673217E+01      0.2113386177E+02
          0                 3           2             4    7     1       0.1085293559E-01       5    8    1         0.6070933948E+00      0.1479212181E+01
          0                 4           2             4    7     1      -0.4318490357E-03       5    8    1        -0.2483018143E-01      0.6049993669E-01
          0                 5           1             4    7     1       0.5324885096E-05       5    8    1         0.3146748959E-03      0.7667206458E-03

    ------------------------------------------------
       NWT REQUIRED            5 OUTER ITERATIONS 
       AND A TOTAL OF          9 INNER ITERATIONS.
    ------------------------------------------------

 NO OUTPUT CONTROL FOR STRESS PERIOD   21   TIME STEP   19
 
 SOLVING FOR HEAD 
                                                   Max.-Head-Change                         Max.-Flux-Residual
  Residual-Control   Outer-Iter.   Inner-Iter.     Column Row Layer    Maximum-Head-Change  Column Row Layer    Maximum-Flux-Residual          L2-NORM 
          0                 1           2             5    8     1       0.1023327886E+00       5    8    1         0.5548407004E+01      0.1365308778E+02
          0                 2           2             4    7     1      -0.1594471974E+00       5    8    1        -0.8674773412E+01      0.2113891784E+02
          0                 3           2             4    7     1       0.1085658730E-01       5    8    1         0.6071704173E+00      0.1479566089E+01
          0                 4           2             4    7     1      -0.4319943415E-03       5    8    1        -0.2483333159E-01      0.6051441236E-01
          0                 5           1             4    7     1       0.5326676437E-05       5    8    1         0.3147148088E-03      0.7669041605E-03

    ------------------------------------------------
       NWT REQUIRED            5 OUTER ITERATIONS 
       AND A TOTAL OF          9 INNER ITERATIONS.
    ------------------------------------------------

 NO OUTPUT CONTROL FOR STRESS PERIOD   21   TIME STEP   20
 
 SOLVING FOR HEAD 
                                                   Max.-Head-Change                         Max.-Flux-Residual
  Residual-Control   Outer-Iter.   Inner-Iter.     Column Row Layer    Maximum-Head-Change  Column Row Layer    Maximum-Flux-Residual          L2-NORM 
          0                 1           2             5    8     1       0.1025516528E+00       5    8    1         0.5559602404E+01      0.1369666805E+02
          0                 2           2             4    7     1      -0.1595106732E+00       5    8    1        -0.8675892926E+01      0.2114391901E+02
          0                 3           2             4    7     1       0.1086090936E-01       5    8    1         0.6072487884E+00      0.1479916154E+01
          0                 4           2             4    7     1      -0.4321663222E-03       5    8    1        -0.2483653698E-01      0.6052872980E-01
          0                 5           1             4    7     1       0.5328796990E-05       5    8    1         0.3147554457E-03      0.7670858745E-03

    ------------------------------------------------
       NWT REQUIRED            5 OUTER ITERATIONS 
       AND A TOTAL OF          9 INNER ITERATIONS.
    ------------------------------------------------

 NO OUTPUT CONTROL FOR STRESS PERIOD   21   TIME STEP   21
 
 SOLVING FOR HEAD 
                                                   Max.-Head-Change                         Max.-Flux-Residual
  Residual-Control   Outer-Iter.   Inner-Iter.     Column Row Layer    Maximum-Head-Change  Column Row Layer    Maximum-Flux-Residual          L2-NORM 
          0                 1           2             5    8     1       0.1027733616E+00       5    8    1         0.5570970906E+01      0.1373996306E+02
          0                 2           2             4    7     1      -0.1595728658E+00       5    8    1        -0.8677029751E+01      0.2114886743E+02
          0                 3           2             4    7     1       0.1086514404E-01       5    8    1         0.6073283709E+00      0.1480262528E+01
          0                 4           2             4    7     1      -0.4323348265E-03       5    8    1        -0.2483979186E-01      0.6054289642E-01
          0                 5           1             4    7     1       0.5330874978E-05       5    8    1         0.3147966736E-03      0.7672652717E-03

    ------------------------------------------------
       NWT REQUIRED            5 OUTER ITERATIONS 
       AND A TOTAL OF          9 INNER ITERATIONS.
    ------------------------------------------------

 NO OUTPUT CONTROL FOR STRESS PERIOD   21   TIME STEP   22
 
 SOLVING FOR HEAD 
                                                   Max.-Head-Change                         Max.-Flux-Residual
  Residual-Control   Outer-Iter.   Inner-Iter.     Column Row Layer    Maximum-Head-Change  Column Row Layer    Maximum-Flux-Residual          L2-NORM 
          0                 1           2             5    8     1       0.1029971744E+00       5    8    1         0.5582471262E+01      0.1378293995E+02
          0                 2           2             4    7     1      -0.1596338290E+00       5    8    1        -0.8678179763E+01      0.2115376118E+02
          0                 3           2             4    7     1       0.1086929502E-01       5    8    1         0.6074088761E+00      0.1480605074E+01
          0                 4           2             4    7     1      -0.4324999993E-03       5    8    1        -0.2484308452E-01      0.6055690706E-01
          0                 5           1             4    7     1       0.5332911519E-05       5    8    1         0.3148384226E-03      0.7674428631E-03

    ------------------------------------------------
       NWT REQUIRED            5 OUTER ITERATIONS 
       AND A TOTAL OF          9 INNER ITERATIONS.
    ------------------------------------------------

 NO OUTPUT CONTROL FOR STRESS PERIOD   21   TIME STEP   23
 
 SOLVING FOR HEAD 
                                                   Max.-Head-Change                         Max.-Flux-Residual
  Residual-Control   Outer-Iter.   Inner-Iter.     Column Row Layer    Maximum-Head-Change  Column Row Layer    Maximum-Flux-Residual          L2-NORM 
          0                 1           2             5    8     1       0.1032229795E+00       5    8    1         0.5594096245E+01      0.1382559432E+02
          0                 2           2             4    7     1      -0.1596935895E+00       5    8    1        -0.8679342239E+01      0.2115860182E+02
          0                 3           2             4    7     1       0.1087336411E-01       5    8    1         0.6074902535E+00      0.1480943902E+01
          0                 4           2             4    7     1      -0.4326619144E-03       5    8    1        -0.2484641284E-01      0.6057076525E-01
          0                 5           1             4    7     1       0.5334908184E-05       5    8    1         0.3148805999E-03      0.7676182321E-03

    ------------------------------------------------
       NWT REQUIRED            5 OUTER ITERATIONS 
       AND A TOTAL OF          9 INNER ITERATIONS.
    ------------------------------------------------

 NO OUTPUT CONTROL FOR STRESS PERIOD   21   TIME STEP   24
 
 SOLVING FOR HEAD 
                                                   Max.-Head-Change                         Max.-Flux-Residual
  Residual-Control   Outer-Iter.   Inner-Iter.     Column Row Layer    Maximum-Head-Change  Column Row Layer    Maximum-Flux-Residual          L2-NORM 
          0                 1           2             5    8     1       0.1034504042E+00       5    8    1         0.5605824478E+01      0.1386791359E+02
          0                 2           2             4    7     1      -0.1597521860E+00       5    8    1        -0.8680515042E+01      0.2116338924E+02
          0                 3           2             4    7     1       0.1087735394E-01       5    8    1         0.6075723534E+00      0.1481279005E+01
          0                 4           2             4    7     1      -0.4328206748E-03       5    8    1        -0.2484977070E-01      0.6058447108E-01
          0                 5           1             4    7     1       0.5336865307E-05       5    8    1         0.3149231536E-03      0.7677920618E-03

    ------------------------------------------------
       NWT REQUIRED            5 OUTER ITERATIONS 
       AND A TOTAL OF          9 INNER ITERATIONS.
    ------------------------------------------------

 NO OUTPUT CONTROL FOR STRESS PERIOD   21   TIME STEP   25
 
 SOLVING FOR HEAD 
                                                   Max.-Head-Change                         Max.-Flux-Residual
  Residual-Control   Outer-Iter.   Inner-Iter.     Column Row Layer    Maximum-Head-Change  Column Row Layer    Maximum-Flux-Residual          L2-NORM 
          0                 1           2             5    8     1       0.1036788204E+00       5    8    1         0.5617621072E+01      0.1390986682E+02
          0                 2           2             4    7     1      -0.1598096550E+00       5    8    1        -0.8681694681E+01      0.2116812198E+02
          0                 3           2             4    7     1       0.1088126701E-01       5    8    1         0.6076549316E+00      0.1481610281E+01
          0                 4           2             4    7     1      -0.4329763814E-03       5    8    1        -0.2485314815E-01      0.6059802088E-01
          0                 5           1             4    7     1       0.5338785353E-05       5    8    1         0.3149659540E-03      0.7679635606E-03

    ------------------------------------------------
       NWT REQUIRED            5 OUTER ITERATIONS 
       AND A TOTAL OF          9 INNER ITERATIONS.
    ------------------------------------------------

 NO OUTPUT CONTROL FOR STRESS PERIOD   21   TIME STEP   26
 
 SOLVING FOR HEAD 
                                                   Max.-Head-Change                         Max.-Flux-Residual
  Residual-Control   Outer-Iter.   Inner-Iter.     Column Row Layer    Maximum-Head-Change  Column Row Layer    Maximum-Flux-Residual          L2-NORM 
          0                 1           2             5    8     1       0.1039083600E+00       5    8    1         0.5629492396E+01      0.1395146456E+02
          0                 2           2             4    7     1      -0.1598660193E+00       5    8    1        -0.8682881796E+01      0.2117280188E+02
          0                 3           2             4    7     1       0.1088510486E-01       5    8    1         0.6077380327E+00      0.1481937858E+01
          0                 4           2             4    7     1      -0.4331290947E-03       5    8    1        -0.2485654697E-01      0.6061141909E-01
          0                 5           1             4    7     1       0.5340668547E-05       5    8    1         0.3150090170E-03      0.7681367127E-03

    ------------------------------------------------
       NWT REQUIRED            5 OUTER ITERATIONS 
       AND A TOTAL OF          9 INNER ITERATIONS.
    ------------------------------------------------

 NO OUTPUT CONTROL FOR STRESS PERIOD   21   TIME STEP   27
 
 SOLVING FOR HEAD 
                                                   Max.-Head-Change                         Max.-Flux-Residual
  Residual-Control   Outer-Iter.   Inner-Iter.     Column Row Layer    Maximum-Head-Change  Column Row Layer    Maximum-Flux-Residual          L2-NORM 
          0                 1           2             5    8     1       0.1041383053E+00       5    8    1         0.5641398565E+01      0.1399269395E+02
          0                 2           2             4    7     1      -0.1599213397E+00       5    8    1        -0.8684072395E+01      0.2117742865E+02
          0                 3           2             4    7     1       0.1088887163E-01       5    8    1         0.6078213775E+00      0.1482261716E+01
          0                 4           2             4    7     1      -0.4332789796E-03       5    8    1        -0.2485995577E-01      0.6062466451E-01
          0                 5           1             4    7     1       0.5342516455E-05       5    8    1         0.3150522289E-03      0.7683012762E-03

    ------------------------------------------------
       NWT REQUIRED            5 OUTER ITERATIONS 
       AND A TOTAL OF          9 INNER ITERATIONS.
    ------------------------------------------------

 NO OUTPUT CONTROL FOR STRESS PERIOD   21   TIME STEP   28
 
 SOLVING FOR HEAD 
                                                   Max.-Head-Change                         Max.-Flux-Residual
  Residual-Control   Outer-Iter.   Inner-Iter.     Column Row Layer    Maximum-Head-Change  Column Row Layer    Maximum-Flux-Residual          L2-NORM 
          0                 1           2             5    8     1       0.1043687008E+00       5    8    1         0.5653341306E+01      0.1403353657E+02
          0                 2           2             4    7     1      -0.1599756219E+00       5    8    1        -0.8685266653E+01      0.2118200197E+02
          0                 3           2             4    7     1       0.1089256771E-01       5    8    1         0.6079049782E+00      0.1482581832E+01
          0                 4           2             4    7     1      -0.4334260520E-03       5    8    1        -0.2486337502E-01      0.6063775751E-01
          0                 5           1             4    7     1       0.5344330088E-05       5    8    1         0.3150955552E-03      0.7684673698E-03

    ------------------------------------------------
       NWT REQUIRED            5 OUTER ITERATIONS 
       AND A TOTAL OF          9 INNER ITERATIONS.
    ------------------------------------------------

 NO OUTPUT CONTROL FOR STRESS PERIOD   21   TIME STEP   29
 
 SOLVING FOR HEAD 
                                                   Max.-Head-Change                         Max.-Flux-Residual
  Residual-Control   Outer-Iter.   Inner-Iter.     Column Row Layer    Maximum-Head-Change  Column Row Layer    Maximum-Flux-Residual          L2-NORM 
          0                 1           2             5    8     1       0.1045993129E+00       5    8    1         0.5665307358E+01      0.1407399645E+02
          0                 2           2             4    7     1      -0.1600288984E+00       5    8    1        -0.8686463243E+01      0.2118652283E+02
          0                 3           2             4    7     1       0.1089619532E-01       5    8    1         0.6079887418E+00      0.1482898277E+01
          0                 4           2             4    7     1      -0.4335703992E-03       5    8    1        -0.2486680097E-01      0.6065070030E-01
          0                 5           1             4    7     1       0.5346109891E-05       5    8    1         0.3151389781E-03      0.7686347703E-03

    ------------------------------------------------
       NWT REQUIRED            5 OUTER ITERATIONS 
       AND A TOTAL OF          9 INNER ITERATIONS.
    ------------------------------------------------

 NO OUTPUT CONTROL FOR STRESS PERIOD   21   TIME STEP   30



 STREAM LISTING     PERIOD     21   STEP       30

 LAYER ROW COL. STREAM  RCH.  FLOW INTO     FLOW TO   FLOW OUT OF   OVRLND.     DIRECT     STREAM       STREAM     STREAM     STREAM   STREAMBED  STREAMBED
                SEG.NO.  NO.  STRM. RCH.    AQUIFER    STRM. RCH.    RUNOFF     PRECIP       ET          HEAD       DEPTH      WIDTH   CONDCTNC.   GRADIENT

   1    1    1     1     1    3.7001E+01  2.9351E-01   3.6707E+01  0.000E+00  0.000E+00  0.000E+00  1.09436E+03  1.308E+00  1.514E+01  6.812E-02  1.436E+00
   1    2    2     1     2    3.6707E+01  4.5449E-01   3.6253E+01  0.000E+00  0.000E+00  0.000E+00  1.08936E+03  1.305E+00  1.508E+01  1.056E-01  1.435E+00
   1    3    3     1     3    3.6253E+01  3.8754E-01   3.5865E+01  0.000E+00  0.000E+00  0.000E+00  1.08372E+03  1.302E+00  1.501E+01  9.008E-02  1.434E+00
   1    3    4     1     4    3.5865E+01  3.5682E-01   3.5508E+01  0.000E+00  0.000E+00  0.000E+00  1.07871E+03  1.299E+00  1.495E+01  8.300E-02  1.433E+00
   1    4    5     2     1    3.3508E+01  3.4594E-01   3.3162E+01  0.000E+00  0.000E+00  0.000E+00  1.07337E+03  1.435E+00  1.200E+01  7.800E-02  1.478E+00
   1    5    6     2     2    3.3162E+01  2.6563E-01   3.2897E+01  0.000E+00  0.000E+00  0.000E+00  1.06794E+03  1.427E+00  1.200E+01  6.000E-02  1.476E+00
   1    6    6     2     3    3.2897E+01  2.6522E-01   3.2631E+01  0.000E+00  0.000E+00  0.000E+00  1.06321E+03  1.420E+00  1.200E+01  6.000E-02  1.473E+00
   1    7    6     2     4    3.2631E+01  2.6480E-01   3.2367E+01  0.000E+00  0.000E+00  0.000E+00  1.05849E+03  1.413E+00  1.200E+01  6.000E-02  1.471E+00
   1    8    6     2     5    3.2367E+01  2.6439E-01   3.2102E+01  0.000E+00  0.000E+00  0.000E+00  1.05377E+03  1.406E+00  1.200E+01  6.000E-02  1.469E+00
   1    3    5     3     1    2.0000E+00  2.8252E-01   1.7175E+00  0.000E+00  0.000E+00  0.000E+00  1.07555E+03  1.909E+00  9.636E+00  7.227E-02  1.955E+00
   1    3    6     3     2    1.7175E+00  2.4905E-01   1.4684E+00  0.000E+00  0.000E+00  0.000E+00  1.07264E+03  1.727E+00  8.909E+00  6.682E-02  1.864E+00
   1    3    7     3     3    1.4684E+00  1.9718E-01   1.2712E+00  0.000E+00  0.000E+00  0.000E+00  1.06987E+03  1.555E+00  8.218E+00  5.547E-02  1.777E+00
   1    4    8     3     4    1.2712E+00  2.2567E-01   1.0456E+00  0.000E+00  0.000E+00  0.000E+00  1.06682E+03  1.364E+00  7.455E+00  6.709E-02  1.682E+00
   1    5    8     3     5    1.0456E+00  1.5790E-01   8.8768E-01  0.000E+00  0.000E+00  0.000E+00  1.06362E+03  1.164E+00  6.655E+00  4.991E-02  1.582E+00
   1    6    8     3     6    8.8768E-01  5.5980E-02   8.3170E-01  0.000E+00  0.000E+00  0.000E+00  1.06158E+03  1.036E+00  6.145E+00  1.844E-02  1.518E+00
   1    5   10     4     1    1.0000E+01  9.0919E-02   9.9091E+00  0.000E+00  0.000E+00  0.000E+00  1.07836E+03  6.368E-01  1.000E+01  2.500E-02  1.212E+00
   1    5    9     4     2    9.9091E+00  1.8158E-01   9.7275E+00  0.000E+00  0.000E+00  0.000E+00  1.07154E+03  6.315E-01  1.000E+01  5.000E-02  1.211E+00
   1    6    8     4     3    9.7275E+00  1.2689E-01   9.6006E+00  0.000E+00  0.000E+00  0.000E+00  1.06381E+03  6.256E-01  1.000E+01  3.500E-02  1.209E+00
   1    6    8     5     1    1.0432E+01  2.2686E-01   1.0205E+01  0.000E+00  0.000E+00  0.000E+00  1.05868E+03  6.790E-01  1.542E+01  6.166E-02  1.226E+00
   1    7    7     5     2    1.0205E+01  2.7894E-01   9.9265E+00  0.000E+00  0.000E+00  0.000E+00  1.05417E+03  6.732E-01  1.519E+01  7.594E-02  1.224E+00
   1    8    7     5     3    9.9265E+00  1.9221E-01   9.7343E+00  0.000E+00  0.000E+00  0.000E+00  1.04992E+03  6.676E-01  1.497E+01  5.241E-02  1.223E+00
   1    8    6     5     4    9.7343E+00  1.3577E-01   9.5985E+00  0.000E+00  0.000E+00  0.000E+00  1.04691E+03  6.637E-01  1.482E+01  3.706E-02  1.221E+00
   1    9    6     6     1    4.1701E+01  2.7939E-01   4.1421E+01  0.000E+00  0.000E+00  0.000E+00  1.04438E+03  1.656E+00  1.200E+01  6.000E-02  1.552E+00
   1   10    7     6     2    4.1421E+01  2.7899E-01   4.1142E+01  0.000E+00  0.000E+00  0.000E+00  1.03983E+03  1.650E+00  1.200E+01  6.000E-02  1.550E+00
   1   11    7     6     3    4.1142E+01  2.7859E-01   4.0864E+01  0.000E+00  0.000E+00  0.000E+00  1.03528E+03  1.643E+00  1.200E+01  6.000E-02  1.548E+00
   1   12    7     6     4    4.0864E+01  2.7818E-01   4.0586E+01  0.000E+00  0.000E+00  0.000E+00  1.03073E+03  1.636E+00  1.200E+01  6.000E-02  1.545E+00
   1   13    7     6     5    4.0586E+01  1.1424E-02   4.0574E+01  0.000E+00  0.000E+00  0.000E+00  1.02754E+03  1.633E+00  1.200E+01  2.400E-02  1.587E-01
   1   14    9     7     1    1.5000E+02  1.3333E+00   1.4867E+02  0.000E+00  0.000E+00  0.000E+00  1.03987E+03  2.288E+00  5.529E+01  5.593E-01  7.946E-01
   1   13    8     7     2    1.4867E+02  1.8338E+00   1.4683E+02  0.000E+00  0.000E+00  0.000E+00  1.03478E+03  2.279E+00  5.526E+01  6.148E-01  9.943E-01
   1   13    7     7     3    1.4683E+02  1.4653E+00   1.4537E+02  0.000E+00  0.000E+00  0.000E+00  1.02969E+03  2.271E+00  5.522E+01  5.585E-01  8.746E-01
   1   13    6     8     1    1.8594E+02  9.8043E-01   1.8496E+02  0.000E+00  0.000E+00  0.000E+00  1.02493E+03  3.050E+00  4.423E+01  4.507E-01  7.251E-01
   1   13    5     8     2    1.8496E+02  2.0967E-01   1.8475E+02  0.000E+00  0.000E+00  0.000E+00  1.01867E+03  3.046E+00  4.417E+01  4.501E-01  1.553E-01
   1   13    4     8     3    1.8475E+02 -2.3549E+00   1.8711E+02  0.000E+00  0.000E+00  0.000E+00  1.01243E+03  3.053E+00  4.427E+01  4.511E+00 -1.740E-01
   1   13    3     8     4    1.8711E+02 -3.6200E+00   1.9073E+02  0.000E+00  0.000E+00  0.000E+00  1.00620E+03  3.071E+00  4.453E+01  4.538E+00 -2.659E-01
   1   13    2     8     5    1.9073E+02 -2.5890E+00   1.9332E+02  0.000E+00  0.000E+00  0.000E+00  9.99965E+02  3.090E+00  4.481E+01  4.566E+00 -1.890E-01
   1   13    1     8     6    1.9332E+02 -2.0214E+00   1.9534E+02  0.000E+00  0.000E+00  0.000E+00  9.94979E+02  3.104E+00  4.501E+01  2.752E+00 -2.448E-01





UNSATURATED ZONE PACKAGE VOLUMETRIC BUDGET FOR  TIME STEP    30 STRESS PERIOD   21
  ------------------------------------------------------------------------------



     CUMULATIVE VOLUMES      L**3       RATES FOR THIS TIME STEP      L**3/T
     ------------------                 ------------------------

           IN:                                      IN:
           ---                                      ---
        INFILTRATION =   822943377.9287          INFILTRATION =          49.5675

          OUT:                                     OUT:
          ----                                     ----
              UZF ET =   822176402.7208                UZF ET =          49.5675
        UZF RECHARGE =       73224.0000          UZF RECHARGE =       0.0000E+00

            IN - OUT =      693751.2079              IN - OUT =       0.0000E+00

          STORAGE:                                 STORAGE:
          --------                                 --------
      STORAGE CHANGE =      693745.9297        STORAGE CHANGE =      -2.3861E-16

 PERCENT DISCREPANCY IS DIFFERENCE BETWEEN IN-OUT MINUS CHANGE IN STORAGE
 DIVIDED BY THE AVERAGE OF IN AND OUT TIMES 100

 PERCENT DISCREPANCY =           0.00     PERCENT DISCREPANCY =           0.00






1
  VOLUMETRIC BUDGET FOR AGRICULTURAL FIELDS AT  END OF TIME STEP   30, STRESS PERIOD  21
  ------------------------------------------------------------------------------

     CUMULATIVE VOLUMES      L**3       RATES FOR THIS TIME STEP      L**3/T
     ------------------                 ------------------------

           IN:                                      IN:
           ---                                      ---
               AG WELLS  =   778289920.0000                 AG WELLS  =          48.7200
      DIVERSION SEGMENTS =           0.0000        DIVERSION SEGMENTS =           0.0000
       IRRIGATION PONDS  =           0.0000         IRRIGATION PONDS  =           0.0000
           GW IRRIGATION =           0.0000             GW IRRIGATION =           0.0000
           SW IRRIGATION =           0.0000             SW IRRIGATION =           0.0000
        SYSTEM LOSSES GW =           0.0000          SYSTEM LOSSES GW =           0.0000
        SYSTEM LOSSES SW =           0.0000          SYSTEM LOSSES SW =           0.0000

                TOTAL IN =   778289920.0000                  TOTAL IN =          48.7200

          OUT:                                     OUT:
          ----                                     ----
               AG WELLS  =           0.0000                 AG WELLS  =           0.0000
      DIVERSION SEGMENTS =           0.0000        DIVERSION SEGMENTS =           0.0000
       IRRIGATION PONDS  =           0.0000         IRRIGATION PONDS  =           0.0000
           GW IRRIGATION =   778289920.0000             GW IRRIGATION =          48.7200
           SW IRRIGATION =           0.0000             SW IRRIGATION =           0.0000
        SYSTEM LOSSES GW =           0.0000          SYSTEM LOSSES GW =           0.0000
        SYSTEM LOSSES SW =           0.0000          SYSTEM LOSSES SW =           0.0000

               TOTAL OUT =   778289920.0000                 TOTAL OUT =          48.7200

                IN - OUT =           0.0000                  IN - OUT =           0.0000

     PERCENT DISCREPANCY =           0.00         PERCENT DISCREPANCY =           0.00



1
  VOLUMETRIC BUDGET FOR ENTIRE MODEL AT END OF TIME STEP   30, STRESS PERIOD  21
  ------------------------------------------------------------------------------

     CUMULATIVE VOLUMES      L**3       RATES FOR THIS TIME STEP      L**3/T
     ------------------                 ------------------------

           IN:                                      IN:
           ---                                      ---
             STORAGE     =   932652352.0000               STORAGE     =          47.2981
       CONSTANT HEAD     =           0.0000         CONSTANT HEAD     =           0.0000
     HEAD DEP BOUNDS     =    15038007.0000       HEAD DEP BOUNDS     =           0.2856
      STREAM LEAKAGE     =   661723008.0000        STREAM LEAKAGE     =          12.2489
        UZF RECHARGE     =       73223.9531          UZF RECHARGE     =           0.0000
               GW ET     =           0.0000                 GW ET     =           0.0000
     SURFACE LEAKAGE     =           0.0000       SURFACE LEAKAGE     =           0.0000
           AG WELLS      =           0.0000             AG WELLS      =           0.0000

                TOTAL IN =  1609486592.0000                  TOTAL IN =          59.8326

          OUT:                                     OUT:
          ----                                     ----
             STORAGE     =   254051984.0000               STORAGE     =           0.2342
       CONSTANT HEAD     =           0.0000         CONSTANT HEAD     =           0.0000
     HEAD DEP BOUNDS     =    15529394.0000       HEAD DEP BOUNDS     =           0.2931
      STREAM LEAKAGE     =   544016320.0000        STREAM LEAKAGE     =          10.5853
        UZF RECHARGE     =           0.0000          UZF RECHARGE     =           0.0000
               GW ET     =    17603406.0000                 GW ET     =           0.0000
     SURFACE LEAKAGE     =           0.0000       SURFACE LEAKAGE     =           0.0000
           AG WELLS      =   778289920.0000             AG WELLS      =          48.7200

               TOTAL OUT =  1609490944.0000                 TOTAL OUT =          59.8326

                IN - OUT =       -4352.0000                  IN - OUT =       3.0518E-05

     PERCENT DISCREPANCY =          -0.00         PERCENT DISCREPANCY =           0.00






         TIME SUMMARY AT END OF TIME STEP   30 IN STRESS PERIOD   21
                    SECONDS     MINUTES      HOURS       DAYS        YEARS
                    -----------------------------------------------------------
   TIME STEP LENGTH  87667.      1461.1      24.352      1.0147     2.77799E-03
 STRESS PERIOD TIME 2.63000E+06  43833.      730.56      30.440     8.33397E-02
         TOTAL TIME 5.26866E+07 8.78110E+05  14635.      609.80      1.6695    
1
1
                            STRESS PERIOD NO.   22, LENGTH =   2630000.    
                            -----------------------------------------------

                              NUMBER OF TIME STEPS =    30

                               MULTIPLIER FOR DELT =     1.000

                            INITIAL TIME STEP SIZE =   87666.66    

 REUSING NON-PARAMETER GHB CELLS FROM LAST STRESS PERIOD

      2 GHB CELLS

 REUSING STREAM SEGMENT DATA FROM LAST STRESS PERIOD



            AREAL INFILTRATION RATE
 READING ON UNIT   19 WITH FORMAT: (FREE)              

            1           2           3           4           5           6           7           8           9          10
 ........................................................................................................................
   1   1.0000E-10  2.0000E-10   0.000       0.000       0.000       0.000       0.000       0.000       0.000       0.000    
   2   2.0000E-10  1.0000E-10  2.0000E-10   0.000       0.000      8.0000E-10  8.0000E-10  5.0000E-10   0.000       0.000    
   3    0.000      5.0000E-10  1.0000E-10  1.0000E-10  8.0000E-10  8.0000E-10  5.0000E-10  5.0000E-10   0.000       0.000    
   4   8.0000E-10  5.0000E-10  1.0000E-10  1.0000E-10  1.0000E-10  1.0000E-10  1.0000E-10  1.0000E-10  2.0000E-10   0.000    
   5   8.0000E-10  5.0000E-10  1.0000E-10  1.0000E-10  1.0000E-10  1.0000E-10  1.0000E-10  1.0000E-10  1.0000E-10  1.0000E-10
   6   8.0000E-10  5.0000E-10  5.0000E-10  2.0000E-10  2.0000E-10  1.0000E-10  1.0000E-10  1.0000E-10  1.0000E-10  5.0000E-10
   7   8.0000E-10  5.0000E-10  5.0000E-10  2.0000E-10  2.0000E-10  1.0000E-10  1.0000E-10  2.0000E-10  2.0000E-10   0.000    
   8    0.000      5.0000E-10  5.0000E-10  2.0000E-10  2.0000E-10  1.0000E-10  1.0000E-10  2.0000E-10  5.0000E-10   0.000    
   9    0.000      5.0000E-10  5.0000E-10  2.0000E-10  2.0000E-10  1.0000E-10  1.0000E-10  2.0000E-10  5.0000E-10   0.000    
  10    0.000      5.0000E-10  5.0000E-10  2.0000E-10  2.0000E-10  1.0000E-10  1.0000E-10  2.0000E-10  5.0000E-10  8.0000E-10
  11    0.000      1.0000E-10  1.0000E-10  1.0000E-10  1.0000E-10  1.0000E-10  1.0000E-10  2.0000E-10  5.0000E-10   0.000    
  12   1.0000E-10  1.0000E-10  1.0000E-10  1.0000E-10  1.0000E-10  1.0000E-10  1.0000E-10  1.0000E-10  2.0000E-10   0.000    
  13   1.0000E-10  1.0000E-10  2.0000E-10  2.0000E-10  2.0000E-10  2.0000E-10  2.0000E-10  1.0000E-10  1.0000E-10   0.000    
  14    0.000      2.0000E-10  5.0000E-10  5.0000E-10  5.0000E-10  5.0000E-10  5.0000E-10  2.0000E-10  1.0000E-10   0.000    
  15    0.000       0.000      8.0000E-10  8.0000E-10  8.0000E-10  8.0000E-10   0.000       0.000       0.000       0.000    

                  ET RATE =  7.500000E-08

 USING ET EXTINCTION DEPTH FROM PREVIOUS STRESS PERIOD. CURRENT PERIOD IS:      22

 USING EXTINCTION WATER CONTENT FROM PREVIOUS STRESS PERIOD. CURRENT PERIOD IS:      22

 USING AIR ENTRY PRESSURE FROM PREVIOUS STRESS PERIOD. CURRENT PERIOD IS:      22

 USING ROOT PRESSURE HEAD FROM PREVIOUS STRESS PERIOD. CURRENT PERIOD IS:      22

 USING ROOT ACTIVITY FROM PREVIOUS STRESS PERIOD. CURRENT PERIOD IS:      22

 PROCESSING AG STRESS PERIOD DATA

 READING AG STRESS PERIOD DATA

 READING IRRIGATION WELL

 NO IRRPOND OR REUSING IRRPOND DATA FROM LAST STRESS PERIOD

 END PROCESSING AG STRESS PERIOD DATA OPTIONS
 
 SOLVING FOR HEAD 
                                                   Max.-Head-Change                         Max.-Flux-Residual
  Residual-Control   Outer-Iter.   Inner-Iter.     Column Row Layer    Maximum-Head-Change  Column Row Layer    Maximum-Flux-Residual          L2-NORM 
          0                 1           2             5    8     1       0.6981750171E-01       5    8    1         0.3802268967E+01      0.1009895812E+02
          0                 2           2             5    8     1      -0.6791224582E-02       5    8    1        -0.3802189377E+00      0.1009819427E+01
          0                 3           2             5    8     1       0.4624583582E-03       5    8    1         0.2661541357E-01      0.7068278737E-01
          0                 4           1             5    8     1      -0.1840164612E-04       5    8    1        -0.1088571586E-02      0.2890670784E-02

    ------------------------------------------------
       NWT REQUIRED            4 OUTER ITERATIONS 
       AND A TOTAL OF          7 INNER ITERATIONS.
    ------------------------------------------------

 NO OUTPUT CONTROL FOR STRESS PERIOD   22   TIME STEP    1
 
 SOLVING FOR HEAD 
                                                   Max.-Head-Change                         Max.-Flux-Residual
  Residual-Control   Outer-Iter.   Inner-Iter.     Column Row Layer    Maximum-Head-Change  Column Row Layer    Maximum-Flux-Residual          L2-NORM 
          0                 1           2             5    8     1       0.1016799546E+00       5    8    1         0.5503092757E+01      0.1382912687E+02
          0                 2           2             5    7     1      -0.4394220498E-01       5    8    1        -0.2420212423E+01      0.5875554642E+01
          0                 3           2             5    7     1       0.2992293836E-02       5    8    1         0.1694146648E+00      0.4112872825E+00
          0                 4           2             5    7     1      -0.1190661957E-03       5    8    1        -0.6929070180E-02      0.1682170914E-01
          0                 5           1             5    7     1       0.1468139360E-05       5    8    1         0.8781268843E-04      0.2131815392E-03

    ------------------------------------------------
       NWT REQUIRED            5 OUTER ITERATIONS 
       AND A TOTAL OF          9 INNER ITERATIONS.
    ------------------------------------------------

 NO OUTPUT CONTROL FOR STRESS PERIOD   22   TIME STEP    2
 
 SOLVING FOR HEAD 
                                                   Max.-Head-Change                         Max.-Flux-Residual
  Residual-Control   Outer-Iter.   Inner-Iter.     Column Row Layer    Maximum-Head-Change  Column Row Layer    Maximum-Flux-Residual          L2-NORM 
          0                 1           2             5    8     1       0.9872455979E-01       5    8    1         0.5339502576E+01      0.1353640326E+02
          0                 2           2             5    7     1      -0.4380976382E-01       5    8    1        -0.2403854330E+01      0.5850589244E+01
          0                 3           2             5    7     1       0.2983274648E-02       5    8    1         0.1682695988E+00      0.4095396917E+00
          0                 4           2             5    7     1      -0.1187073158E-03       5    8    1        -0.6882236922E-02      0.1675014271E-01
          0                 5           1             5    7     1       0.1463713990E-05       5    8    1         0.8721916493E-04      0.2122758930E-03

    ------------------------------------------------
       NWT REQUIRED            5 OUTER ITERATIONS 
       AND A TOTAL OF          9 INNER ITERATIONS.
    ------------------------------------------------

 NO OUTPUT CONTROL FOR STRESS PERIOD   22   TIME STEP    3
 
 SOLVING FOR HEAD 
                                                   Max.-Head-Change                         Max.-Flux-Residual
  Residual-Control   Outer-Iter.   Inner-Iter.     Column Row Layer    Maximum-Head-Change  Column Row Layer    Maximum-Flux-Residual          L2-NORM 
          0                 1           2             5    6     1       0.9598375974E-01       5    8    1         0.5185915831E+01      0.1325879603E+02
          0                 2           2             5    7     1      -0.4367919262E-01       5    8    1        -0.2388496551E+01      0.5826732569E+01
          0                 3           2             5    7     1       0.2974382841E-02       5    8    1         0.1671945544E+00      0.4078697913E+00
          0                 4           2             5    7     1      -0.1183535043E-03       5    8    1        -0.6838267520E-02      0.1668185419E-01
          0                 5           1             5    7     1       0.1459351460E-05       5    8    1         0.8666192753E-04      0.2114116856E-03

    ------------------------------------------------
       NWT REQUIRED            5 OUTER ITERATIONS 
       AND A TOTAL OF          9 INNER ITERATIONS.
    ------------------------------------------------

 NO OUTPUT CONTROL FOR STRESS PERIOD   22   TIME STEP    4
 
 SOLVING FOR HEAD 
                                                   Max.-Head-Change                         Max.-Flux-Residual
  Residual-Control   Outer-Iter.   Inner-Iter.     Column Row Layer    Maximum-Head-Change  Column Row Layer    Maximum-Flux-Residual          L2-NORM 
          0                 1           2             5    6     1       0.9348429125E-01       5    8    1         0.5041623921E+01      0.1299520603E+02
          0                 2           2             4    7     1      -0.4355097395E-01       5    8    1        -0.2374068349E+01      0.5803915256E+01
          0                 3           2             4    7     1       0.2965650271E-02       5    8    1         0.1661845797E+00      0.4062726416E+00
          0                 4           2             4    7     1      -0.1180060335E-03       5    8    1        -0.6796959497E-02      0.1661653387E-01
          0                 5           1             4    7     1       0.1455065325E-05       5    8    1         0.8613841487E-04      0.2105823200E-03

    ------------------------------------------------
       NWT REQUIRED            5 OUTER ITERATIONS 
       AND A TOTAL OF          9 INNER ITERATIONS.
    ------------------------------------------------

 NO OUTPUT CONTROL FOR STRESS PERIOD   22   TIME STEP    5
 
 SOLVING FOR HEAD 
                                                   Max.-Head-Change                         Max.-Flux-Residual
  Residual-Control   Outer-Iter.   Inner-Iter.     Column Row Layer    Maximum-Head-Change  Column Row Layer    Maximum-Flux-Residual          L2-NORM 
          0                 1           2             5    7     1       0.9187580210E-01       5    6    1         0.4911053519E+01      0.1274462367E+02
          0                 2           2             4    7     1      -0.4352321301E-01       5    6    1        -0.2361011831E+01      0.5782072561E+01
          0                 3           2             4    7     1       0.2963759381E-02       5    6    1         0.1652706178E+00      0.4047436975E+00
          0                 4           2             4    7     1      -0.1179307953E-03       5    6    1        -0.6759578441E-02      0.1655401087E-01
          0                 5           1             4    7     1       0.1454137842E-05       5    6    1         0.8566469182E-04      0.2097892804E-03

    ------------------------------------------------
       NWT REQUIRED            5 OUTER ITERATIONS 
       AND A TOTAL OF          9 INNER ITERATIONS.
    ------------------------------------------------

 NO OUTPUT CONTROL FOR STRESS PERIOD   22   TIME STEP    6
 
 SOLVING FOR HEAD 
                                                   Max.-Head-Change                         Max.-Flux-Residual
  Residual-Control   Outer-Iter.   Inner-Iter.     Column Row Layer    Maximum-Head-Change  Column Row Layer    Maximum-Flux-Residual          L2-NORM 
          0                 1           2             5    7     1       0.9060091535E-01       5    7    1         0.4802162165E+01      0.1250613569E+02
          0                 2           2             4    7     1      -0.4349151802E-01       5    7    1        -0.2350128296E+01      0.5761146134E+01
          0                 3           2             4    7     1       0.2961600636E-02       5    7    1         0.1645084746E+00      0.4032788788E+00
          0                 4           2             4    7     1      -0.1178448990E-03       5    7    1        -0.6728408100E-02      0.1649409847E-01
          0                 5           1             4    7     1       0.1453078742E-05       5    7    1         0.8526967031E-04      0.2090330149E-03

    ------------------------------------------------
       NWT REQUIRED            5 OUTER ITERATIONS 
       AND A TOTAL OF          9 INNER ITERATIONS.
    ------------------------------------------------

 NO OUTPUT CONTROL FOR STRESS PERIOD   22   TIME STEP    7
 
 SOLVING FOR HEAD 
                                                   Max.-Head-Change                         Max.-Flux-Residual
  Residual-Control   Outer-Iter.   Inner-Iter.     Column Row Layer    Maximum-Head-Change  Column Row Layer    Maximum-Flux-Residual          L2-NORM 
          0                 1           2             5    7     1       0.8935101537E-01       5    7    1         0.4735913378E+01      0.1227888791E+02
          0                 2           2             4    7     1      -0.4345622391E-01       5    7    1        -0.2343504404E+01      0.5741080182E+01
          0                 3           2             4    7     1       0.2959196837E-02       5    7    1         0.1640447852E+00      0.4018742270E+00
          0                 4           2             4    7     1      -0.1177492515E-03       5    7    1        -0.6709443259E-02      0.1643666021E-01
          0                 5           1             4    7     1       0.1451899337E-05       5    7    1         0.8502933838E-04      0.2083064866E-03

    ------------------------------------------------
       NWT REQUIRED            5 OUTER ITERATIONS 
       AND A TOTAL OF          9 INNER ITERATIONS.
    ------------------------------------------------

 NO OUTPUT CONTROL FOR STRESS PERIOD   22   TIME STEP    8
 
 SOLVING FOR HEAD 
                                                   Max.-Head-Change                         Max.-Flux-Residual
  Residual-Control   Outer-Iter.   Inner-Iter.     Column Row Layer    Maximum-Head-Change  Column Row Layer    Maximum-Flux-Residual          L2-NORM 
          0                 1           2             4    7     1       0.8813104052E-01       5    7    1         0.4670952114E+01      0.1206212369E+02
          0                 2           2             4    7     1      -0.4341765280E-01       5    7    1        -0.2337009204E+01      0.5721825840E+01
          0                 3           2             4    7     1       0.2956569919E-02       5    7    1         0.1635901059E+00      0.4005265147E+00
          0                 4           2             4    7     1      -0.1176447260E-03       5    7    1        -0.6690846933E-02      0.1638153389E-01
          0                 5           1             4    7     1       0.1450610495E-05       5    7    1         0.8479364010E-04      0.2076049501E-03

    ------------------------------------------------
       NWT REQUIRED            5 OUTER ITERATIONS 
       AND A TOTAL OF          9 INNER ITERATIONS.
    ------------------------------------------------

 NO OUTPUT CONTROL FOR STRESS PERIOD   22   TIME STEP    9
 
 SOLVING FOR HEAD 
                                                   Max.-Head-Change                         Max.-Flux-Residual
  Residual-Control   Outer-Iter.   Inner-Iter.     Column Row Layer    Maximum-Head-Change  Column Row Layer    Maximum-Flux-Residual          L2-NORM 
          0                 1           2             4    7     1       0.8770366067E-01       5    7    1         0.4607312048E+01      0.1185512967E+02
          0                 2           2             4    7     1      -0.4337609531E-01       5    7    1        -0.2330646190E+01      0.5703336258E+01
          0                 3           2             4    7     1       0.2953739669E-02       5    7    1         0.1631446812E+00      0.3992322651E+00
          0                 4           2             4    7     1      -0.1175321091E-03       5    7    1        -0.6672629090E-02      0.1632860669E-01
          0                 5           1             4    7     1       0.1449221847E-05       5    7    1         0.8456276487E-04      0.2069329800E-03

    ------------------------------------------------
       NWT REQUIRED            5 OUTER ITERATIONS 
       AND A TOTAL OF          9 INNER ITERATIONS.
    ------------------------------------------------

 NO OUTPUT CONTROL FOR STRESS PERIOD   22   TIME STEP   10
 
 SOLVING FOR HEAD 
                                                   Max.-Head-Change                         Max.-Flux-Residual
  Residual-Control   Outer-Iter.   Inner-Iter.     Column Row Layer    Maximum-Head-Change  Column Row Layer    Maximum-Flux-Residual          L2-NORM 
          0                 1           2             4    7     1       0.8724851000E-01       4    7    1         0.4565549224E+01      0.1165726935E+02
          0                 2           2             4    7     1      -0.4333183094E-01       4    7    1        -0.2326472717E+01      0.5685568401E+01
          0                 3           2             4    7     1       0.2950725119E-02       4    7    1         0.1628524121E+00      0.3979885237E+00
          0                 4           2             4    7     1      -0.1174121593E-03       4    7    1        -0.6660675865E-02      0.1627774219E-01
          0                 5           1             4    7     1       0.1447743027E-05       4    7    1         0.8441130012E-04      0.2063012080E-03

    ------------------------------------------------
       NWT REQUIRED            5 OUTER ITERATIONS 
       AND A TOTAL OF          9 INNER ITERATIONS.
    ------------------------------------------------

 NO OUTPUT CONTROL FOR STRESS PERIOD   22   TIME STEP   11
 
 SOLVING FOR HEAD 
                                                   Max.-Head-Change                         Max.-Flux-Residual
  Residual-Control   Outer-Iter.   Inner-Iter.     Column Row Layer    Maximum-Head-Change  Column Row Layer    Maximum-Flux-Residual          L2-NORM 
          0                 1           2             4    7     1       0.8676819543E-01       4    7    1         0.4541899856E+01      0.1146794709E+02
          0                 2           2             4    7     1      -0.4328511575E-01       4    7    1        -0.2324108654E+01      0.5668483260E+01
          0                 3           2             4    7     1       0.2947543704E-02       4    7    1         0.1626869092E+00      0.3967925772E+00
          0                 4           2             4    7     1      -0.1172855688E-03       4    7    1        -0.6653906863E-02      0.1622882892E-01
          0                 5           1             4    7     1       0.1446181988E-05       4    7    1         0.8432550135E-04      0.2056727376E-03

    ------------------------------------------------
       NWT REQUIRED            5 OUTER ITERATIONS 
       AND A TOTAL OF          9 INNER ITERATIONS.
    ------------------------------------------------

 NO OUTPUT CONTROL FOR STRESS PERIOD   22   TIME STEP   12
 
 SOLVING FOR HEAD 
                                                   Max.-Head-Change                         Max.-Flux-Residual
  Residual-Control   Outer-Iter.   Inner-Iter.     Column Row Layer    Maximum-Head-Change  Column Row Layer    Maximum-Flux-Residual          L2-NORM 
          0                 1           2             4    7     1       0.8626529234E-01       4    7    1         0.4516945904E+01      0.1128662074E+02
          0                 2           2             4    7     1      -0.4323620051E-01       4    7    1        -0.2321614093E+01      0.5652043525E+01
          0                 3           2             4    7     1       0.2944212499E-02       4    7    1         0.1625122730E+00      0.3956418055E+00
          0                 4           2             4    7     1      -0.1171530179E-03       4    7    1        -0.6646764303E-02      0.1618176413E-01
          0                 5           1             4    7     1       0.1444547244E-05       4    7    1         0.8423496593E-04      0.2050759588E-03

    ------------------------------------------------
       NWT REQUIRED            5 OUTER ITERATIONS 
       AND A TOTAL OF          9 INNER ITERATIONS.
    ------------------------------------------------

 NO OUTPUT CONTROL FOR STRESS PERIOD   22   TIME STEP   13
 
 SOLVING FOR HEAD 
                                                   Max.-Head-Change                         Max.-Flux-Residual
  Residual-Control   Outer-Iter.   Inner-Iter.     Column Row Layer    Maximum-Head-Change  Column Row Layer    Maximum-Flux-Residual          L2-NORM 
          0                 1           2             4    7     1       0.8574208777E-01       4    7    1         0.4490813640E+01      0.1111279597E+02
          0                 2           2             4    7     1      -0.4318530791E-01       4    7    1        -0.2319001662E+01      0.5636215820E+01
          0                 3           2             4    7     1       0.2940746665E-02       4    7    1         0.1623293874E+00      0.3945338702E+00
          0                 4           2             4    7     1      -0.1170151105E-03       4    7    1        -0.6639284340E-02      0.1613646207E-01
          0                 5           1             4    7     1       0.1442847082E-05       4    7    1         0.8414019703E-04      0.2046284497E-03

    ------------------------------------------------
       NWT REQUIRED            5 OUTER ITERATIONS 
       AND A TOTAL OF          9 INNER ITERATIONS.
    ------------------------------------------------

 NO OUTPUT CONTROL FOR STRESS PERIOD   22   TIME STEP   14
 
 SOLVING FOR HEAD 
                                                   Max.-Head-Change                         Max.-Flux-Residual
  Residual-Control   Outer-Iter.   Inner-Iter.     Column Row Layer    Maximum-Head-Change  Column Row Layer    Maximum-Flux-Residual          L2-NORM 
          0                 1           2             4    7     1       0.8520097797E-01       4    7    1         0.4463636127E+01      0.1094600386E+02
          0                 2           2             4    7     1      -0.4313267125E-01       4    7    1        -0.2316284672E+01      0.5620967452E+01
          0                 3           2             4    7     1       0.2937162089E-02       4    7    1         0.1621391841E+00      0.3934664865E+00
          0                 4           2             4    7     1      -0.1168724777E-03       4    7    1        -0.6631505078E-02      0.1609279963E-01
          0                 5           1             4    7     1       0.1441088113E-05       4    7    1         0.8404159803E-04      0.2040120215E-03

    ------------------------------------------------
       NWT REQUIRED            5 OUTER ITERATIONS 
       AND A TOTAL OF          9 INNER ITERATIONS.
    ------------------------------------------------

 NO OUTPUT CONTROL FOR STRESS PERIOD   22   TIME STEP   15
 
 SOLVING FOR HEAD 
                                                   Max.-Head-Change                         Max.-Flux-Residual
  Residual-Control   Outer-Iter.   Inner-Iter.     Column Row Layer    Maximum-Head-Change  Column Row Layer    Maximum-Flux-Residual          L2-NORM 
          0                 1           2             4    7     1       0.8464380811E-01       4    7    1         0.4435515854E+01      0.1078581495E+02
          0                 2           2             4    7     1      -0.4307847243E-01       4    7    1        -0.2313473494E+01      0.5606268517E+01
          0                 3           2             4    7     1       0.2933471157E-02       4    7    1         0.1619423889E+00      0.3924375674E+00
          0                 4           2             4    7     1      -0.1167256134E-03       4    7    1        -0.6623456211E-02      0.1605071414E-01
          0                 5           1             4    7     1       0.1439277506E-05       4    7    1         0.8393960775E-04      0.2034130484E-03

    ------------------------------------------------
       NWT REQUIRED            5 OUTER ITERATIONS 
       AND A TOTAL OF          9 INNER ITERATIONS.
    ------------------------------------------------

 NO OUTPUT CONTROL FOR STRESS PERIOD   22   TIME STEP   16
 
 SOLVING FOR HEAD 
                                                   Max.-Head-Change                         Max.-Flux-Residual
  Residual-Control   Outer-Iter.   Inner-Iter.     Column Row Layer    Maximum-Head-Change  Column Row Layer    Maximum-Flux-Residual          L2-NORM 
          0                 1           2             4    7     1       0.8407283325E-01       4    7    1         0.4406577472E+01      0.1063186048E+02
          0                 2           2             4    7     1      -0.4302292657E-01       4    7    1        -0.2310580357E+01      0.5592092601E+01
          0                 3           2             4    7     1       0.2929688515E-02       4    7    1         0.1617398579E+00      0.3914452529E+00
          0                 4           2             4    7     1      -0.1165750992E-03       4    7    1        -0.6615172738E-02      0.1601012563E-01
          0                 5           1             4    7     1       0.1437421420E-05       4    7    1         0.8383461750E-04      0.2029041249E-03

    ------------------------------------------------
       NWT REQUIRED            5 OUTER ITERATIONS 
       AND A TOTAL OF          9 INNER ITERATIONS.
    ------------------------------------------------

 NO OUTPUT CONTROL FOR STRESS PERIOD   22   TIME STEP   17
 
 SOLVING FOR HEAD 
                                                   Max.-Head-Change                         Max.-Flux-Residual
  Residual-Control   Outer-Iter.   Inner-Iter.     Column Row Layer    Maximum-Head-Change  Column Row Layer    Maximum-Flux-Residual          L2-NORM 
          0                 1           2             4    7     1       0.8348949146E-01       4    7    1         0.4376901650E+01      0.1048375412E+02
          0                 2           2             4    7     1      -0.4296617593E-01       4    7    1        -0.2307613449E+01      0.5578412108E+01
          0                 3           2             4    7     1       0.2925823849E-02       4    7    1         0.1615321640E+00      0.3904876195E+00
          0                 4           2             4    7     1      -0.1164213211E-03       4    7    1        -0.6606678094E-02      0.1597096198E-01
          0                 5           1             4    7     1       0.1435525009E-05       4    7    1         0.8372694697E-04      0.2024016325E-03

    ------------------------------------------------
       NWT REQUIRED            5 OUTER ITERATIONS 
       AND A TOTAL OF          9 INNER ITERATIONS.
    ------------------------------------------------

 NO OUTPUT CONTROL FOR STRESS PERIOD   22   TIME STEP   18
 
 SOLVING FOR HEAD 
                                                   Max.-Head-Change                         Max.-Flux-Residual
  Residual-Control   Outer-Iter.   Inner-Iter.     Column Row Layer    Maximum-Head-Change  Column Row Layer    Maximum-Flux-Residual          L2-NORM 
          0                 1           2             4    7     1       0.8289578164E-01       4    7    1         0.4346599189E+01      0.1034117690E+02
          0                 2           2             4    7     1      -0.4290841513E-01       4    7    1        -0.2304583853E+01      0.5565204007E+01
          0                 3           2             4    7     1       0.2921890411E-02       4    7    1         0.1613200830E+00      0.3895630507E+00
          0                 4           2             4    7     1      -0.1162648066E-03       4    7    1        -0.6598004007E-02      0.1593314836E-01
          0                 5           1             4    7     1       0.1433594993E-05       4    7    1         0.8361702521E-04      0.2019258192E-03

    ------------------------------------------------
       NWT REQUIRED            5 OUTER ITERATIONS 
       AND A TOTAL OF          9 INNER ITERATIONS.
    ------------------------------------------------

 NO OUTPUT CONTROL FOR STRESS PERIOD   22   TIME STEP   19
 
 SOLVING FOR HEAD 
                                                   Max.-Head-Change                         Max.-Flux-Residual
  Residual-Control   Outer-Iter.   Inner-Iter.     Column Row Layer    Maximum-Head-Change  Column Row Layer    Maximum-Flux-Residual          L2-NORM 
          0                 1           2             4    7     1       0.8229317034E-01       4    7    1         0.4315751970E+01      0.1020382065E+02
          0                 2           2             4    7     1      -0.4284978697E-01       4    7    1        -0.2301499759E+01      0.5552445769E+01
          0                 3           2             4    7     1       0.2917897925E-02       4    7    1         0.1611041882E+00      0.3886699721E+00
          0                 4           2             4    7     1      -0.1161059427E-03       4    7    1        -0.6589173938E-02      0.1589662531E-01
          0                 5           1             4    7     1       0.1431636750E-05       4    7    1         0.8350513804E-04      0.2014619350E-03

    ------------------------------------------------
       NWT REQUIRED            5 OUTER ITERATIONS 
       AND A TOTAL OF          9 INNER ITERATIONS.
    ------------------------------------------------

 NO OUTPUT CONTROL FOR STRESS PERIOD   22   TIME STEP   20
 
 SOLVING FOR HEAD 
                                                   Max.-Head-Change                         Max.-Flux-Residual
  Residual-Control   Outer-Iter.   Inner-Iter.     Column Row Layer    Maximum-Head-Change  Column Row Layer    Maximum-Flux-Residual          L2-NORM 
          0                 1           2             4    7     1       0.8168328003E-01       4    7    1         0.4284450528E+01      0.1007139198E+02
          0                 2           2             4    7     1      -0.4279044943E-01       4    7    1        -0.2298370223E+01      0.5540115170E+01
          0                 3           2             4    7     1       0.2913857146E-02       4    7    1         0.1608851132E+00      0.3878068282E+00
          0                 4           2             4    7     1      -0.1159451570E-03       4    7    1        -0.6580213799E-02      0.1586132173E-01
          0                 5           1             4    7     1       0.1429653975E-05       4    7    1         0.8339158876E-04      0.2010385523E-03

    ------------------------------------------------
       NWT REQUIRED            5 OUTER ITERATIONS 
       AND A TOTAL OF          9 INNER ITERATIONS.
    ------------------------------------------------

 NO OUTPUT CONTROL FOR STRESS PERIOD   22   TIME STEP   21
 
 SOLVING FOR HEAD 
                                                   Max.-Head-Change                         Max.-Flux-Residual
  Residual-Control   Outer-Iter.   Inner-Iter.     Column Row Layer    Maximum-Head-Change  Column Row Layer    Maximum-Flux-Residual          L2-NORM 
          0                 1           2             4    7     1       0.8106722404E-01       4    7    1         0.4252757223E+01      0.9943619892E+01
          0                 2           2             4    7     1      -0.4273051091E-01       4    7    1        -0.2295201481E+01      0.5528192345E+01
          0                 3           2             4    7     1       0.2909775457E-02       4    7    1         0.1606632949E+00      0.3869722271E+00
          0                 4           2             4    7     1      -0.1157827431E-03       4    7    1        -0.6571141435E-02      0.1582718556E-01
          0                 5           1             4    7     1       0.1427651150E-05       4    7    1         0.8327660476E-04      0.2005840076E-03

    ------------------------------------------------
       NWT REQUIRED            5 OUTER ITERATIONS 
       AND A TOTAL OF          9 INNER ITERATIONS.
    ------------------------------------------------

 NO OUTPUT CONTROL FOR STRESS PERIOD   22   TIME STEP   22
 
 SOLVING FOR HEAD 
                                                   Max.-Head-Change                         Max.-Flux-Residual
  Residual-Control   Outer-Iter.   Inner-Iter.     Column Row Layer    Maximum-Head-Change  Column Row Layer    Maximum-Flux-Residual          L2-NORM 
          0                 1           2             4    7     1       0.8044642784E-01       4    7    1         0.4220751529E+01      0.9820280538E+01
          0                 2           2             4    7     1      -0.4267011022E-01       4    7    1        -0.2292001484E+01      0.5516660332E+01
          0                 3           2             4    7     1       0.2905662308E-02       4    7    1         0.1604392894E+00      0.3861649839E+00
          0                 4           2             4    7     1      -0.1156190781E-03       4    7    1        -0.6561979641E-02      0.1579417009E-01
          0                 5           1             4    7     1       0.1425633651E-05       4    7    1         0.8316052299E-04      0.2001633685E-03

    ------------------------------------------------
       NWT REQUIRED            5 OUTER ITERATIONS 
       AND A TOTAL OF          9 INNER ITERATIONS.
    ------------------------------------------------

 NO OUTPUT CONTROL FOR STRESS PERIOD   22   TIME STEP   23
 
 SOLVING FOR HEAD 
                                                   Max.-Head-Change                         Max.-Flux-Residual
  Residual-Control   Outer-Iter.   Inner-Iter.     Column Row Layer    Maximum-Head-Change  Column Row Layer    Maximum-Flux-Residual          L2-NORM 
          0                 1           2             4    7     1       0.7982194589E-01       4    7    1         0.4188492844E+01      0.9701123514E+01
          0                 2           2             4    7     1      -0.4260935003E-01       4    7    1        -0.2288776173E+01      0.5505499412E+01
          0                 3           2             4    7     1       0.2901524689E-02       4    7    1         0.1602135126E+00      0.3853837176E+00
          0                 4           2             4    7     1      -0.1154544382E-03       4    7    1        -0.6552745369E-02      0.1576221872E-01
          0                 5           1             4    7     1       0.1423603270E-05       4    7    1         0.8304347966E-04      0.1997570615E-03

    ------------------------------------------------
       NWT REQUIRED            5 OUTER ITERATIONS 
       AND A TOTAL OF          9 INNER ITERATIONS.
    ------------------------------------------------

 NO OUTPUT CONTROL FOR STRESS PERIOD   22   TIME STEP   24
 
 SOLVING FOR HEAD 
                                                   Max.-Head-Change                         Max.-Flux-Residual
  Residual-Control   Outer-Iter.   Inner-Iter.     Column Row Layer    Maximum-Head-Change  Column Row Layer    Maximum-Flux-Residual          L2-NORM 
          0                 1           2             4    7     1       0.7919514635E-01       4    7    1         0.4156057597E+01      0.9585943898E+01
          0                 2           2             4    7     1      -0.4254836132E-01       4    7    1        -0.2285533072E+01      0.5494693608E+01
          0                 3           2             4    7     1       0.2897371520E-02       4    7    1         0.1599864913E+00      0.3846273041E+00
          0                 4           2             4    7     1      -0.1152891799E-03       4    7    1        -0.6543460205E-02      0.1573128035E-01
          0                 5           1             4    7     1       0.1421565384E-05       4    7    1         0.8292580060E-04      0.1993641806E-03

    ------------------------------------------------
       NWT REQUIRED            5 OUTER ITERATIONS 
       AND A TOTAL OF          9 INNER ITERATIONS.
    ------------------------------------------------

 NO OUTPUT CONTROL FOR STRESS PERIOD   22   TIME STEP   25
 
 SOLVING FOR HEAD 
                                                   Max.-Head-Change                         Max.-Flux-Residual
  Residual-Control   Outer-Iter.   Inner-Iter.     Column Row Layer    Maximum-Head-Change  Column Row Layer    Maximum-Flux-Residual          L2-NORM 
          0                 1           2             4    7     1       0.7856676981E-01       4    7    1         0.4123487701E+01      0.9474542886E+01
          0                 2           2             4    7     1      -0.4248722067E-01       4    7    1        -0.2282276612E+01      0.5484227983E+01
          0                 3           2             4    7     1       0.2893208013E-02       4    7    1         0.1597585356E+00      0.3838947079E+00
          0                 4           2             4    7     1      -0.1151235101E-03       4    7    1        -0.6534136803E-02      0.1570131728E-01
          0                 5           1             4    7     1       0.1419522681E-05       4    7    1         0.8280764337E-04      0.1989882691E-03

    ------------------------------------------------
       NWT REQUIRED            5 OUTER ITERATIONS 
       AND A TOTAL OF          9 INNER ITERATIONS.
    ------------------------------------------------

 NO OUTPUT CONTROL FOR STRESS PERIOD   22   TIME STEP   26
 
 SOLVING FOR HEAD 
                                                   Max.-Head-Change                         Max.-Flux-Residual
  Residual-Control   Outer-Iter.   Inner-Iter.     Column Row Layer    Maximum-Head-Change  Column Row Layer    Maximum-Flux-Residual          L2-NORM 
          0                 1           2             4    7     1       0.7793775417E-01       4    7    1         0.4090836061E+01      0.9366733462E+01
          0                 2           2             4    7     1      -0.4242601717E-01       4    7    1        -0.2279011967E+01      0.5474086968E+01
          0                 3           2             4    7     1       0.2889040236E-02       4    7    1         0.1595300074E+00      0.3831844208E+00
          0                 4           2             4    7     1      -0.1149576705E-03       4    7    1        -0.6524789987E-02      0.1567222672E-01
          0                 5           1             4    7     1       0.1417477962E-05       4    7    1         0.8268919851E-04      0.1986143233E-03

    ------------------------------------------------
       NWT REQUIRED            5 OUTER ITERATIONS 
       AND A TOTAL OF          9 INNER ITERATIONS.
    ------------------------------------------------

 NO OUTPUT CONTROL FOR STRESS PERIOD   22   TIME STEP   27
 
 SOLVING FOR HEAD 
                                                   Max.-Head-Change                         Max.-Flux-Residual
  Residual-Control   Outer-Iter.   Inner-Iter.     Column Row Layer    Maximum-Head-Change  Column Row Layer    Maximum-Flux-Residual          L2-NORM 
          0                 1           2             4    7     1       0.7730923335E-01       4    7    1         0.4058165815E+01      0.9262348141E+01
          0                 2           2             4    7     1      -0.4236486124E-01       4    7    1        -0.2275745450E+01      0.5464257454E+01
          0                 3           2             4    7     1       0.2884875707E-02       4    7    1         0.1593013487E+00      0.3824957800E+00
          0                 4           2             4    7     1      -0.1147919606E-03       4    7    1        -0.6515437874E-02      0.1564400755E-01
          0                 5           1             4    7     1       0.1415434588E-05       4    7    1         0.8257067566E-04      0.1982549556E-03

    ------------------------------------------------
       NWT REQUIRED            5 OUTER ITERATIONS 
       AND A TOTAL OF          9 INNER ITERATIONS.
    ------------------------------------------------

 NO OUTPUT CONTROL FOR STRESS PERIOD   22   TIME STEP   28
 
 SOLVING FOR HEAD 
                                                   Max.-Head-Change                         Max.-Flux-Residual
  Residual-Control   Outer-Iter.   Inner-Iter.     Column Row Layer    Maximum-Head-Change  Column Row Layer    Maximum-Flux-Residual          L2-NORM 
          0                 1           2             4    7     1       0.7668158811E-01       4    7    1         0.4025499467E+01      0.9161219584E+01
          0                 2           2             4    7     1      -0.4230378995E-01       4    7    1        -0.2272479314E+01      0.5454725733E+01
          0                 3           2             4    7     1       0.2880716950E-02       4    7    1         0.1590727172E+00      0.3818280484E+00
          0                 4           2             4    7     1      -0.1146264800E-03       4    7    1        -0.6506086843E-02      0.1561665349E-01
          0                 5           1             4    7     1       0.1413394125E-05       4    7    1         0.8245217691E-04      0.1979064815E-03

    ------------------------------------------------
       NWT REQUIRED            5 OUTER ITERATIONS 
       AND A TOTAL OF          9 INNER ITERATIONS.
    ------------------------------------------------

 NO OUTPUT CONTROL FOR STRESS PERIOD   22   TIME STEP   29
 
 SOLVING FOR HEAD 
                                                   Max.-Head-Change                         Max.-Flux-Residual
  Residual-Control   Outer-Iter.   Inner-Iter.     Column Row Layer    Maximum-Head-Change  Column Row Layer    Maximum-Flux-Residual          L2-NORM 
          0                 1           2             4    7     1       0.7605594705E-01       4    7    1         0.3992900298E+01      0.9064147692E+01
          0                 2           2             4    7     1      -0.4224291320E-01       4    7    1        -0.2269219887E+01      0.5445494927E+01
          0                 3           2             4    7     1       0.2876571446E-02       4    7    1         0.1588445559E+00      0.3811814282E+00
          0                 4           2             4    7     1      -0.1144615263E-03       4    7    1        -0.6496755018E-02      0.1559017557E-01
          0                 5           1             4    7     1       0.1411360272E-05       4    7    1         0.8233391145E-04      0.1975681338E-03

    ------------------------------------------------
       NWT REQUIRED            5 OUTER ITERATIONS 
       AND A TOTAL OF          9 INNER ITERATIONS.
    ------------------------------------------------

 NO OUTPUT CONTROL FOR STRESS PERIOD   22   TIME STEP   30



 STREAM LISTING     PERIOD     22   STEP       30

 LAYER ROW COL. STREAM  RCH.  FLOW INTO     FLOW TO   FLOW OUT OF   OVRLND.     DIRECT     STREAM       STREAM     STREAM     STREAM   STREAMBED  STREAMBED
                SEG.NO.  NO.  STRM. RCH.    AQUIFER    STRM. RCH.    RUNOFF     PRECIP       ET          HEAD       DEPTH      WIDTH   CONDCTNC.   GRADIENT

   1    1    1     1     1    2.4431E+01  2.4251E-01   2.4189E+01  0.000E+00  0.000E+00  0.000E+00  1.09422E+03  1.170E+00  1.292E+01  5.816E-02  1.390E+00
   1    2    2     1     2    2.4189E+01  3.7499E-01   2.3814E+01  0.000E+00  0.000E+00  0.000E+00  1.08922E+03  1.165E+00  1.286E+01  9.003E-02  1.388E+00
   1    3    3     1     3    2.3814E+01  3.1923E-01   2.3495E+01  0.000E+00  0.000E+00  0.000E+00  1.08358E+03  1.160E+00  1.279E+01  7.674E-02  1.387E+00
   1    3    4     1     4    2.3495E+01  2.9350E-01   2.3201E+01  0.000E+00  0.000E+00  0.000E+00  1.07856E+03  1.155E+00  1.273E+01  7.064E-02  1.385E+00
   1    4    5     2     1    2.1201E+01  3.1894E-01   2.0882E+01  0.000E+00  0.000E+00  0.000E+00  1.07302E+03  1.089E+00  1.200E+01  7.800E-02  1.363E+00
   1    5    6     2     2    2.0882E+01  2.4481E-01   2.0637E+01  0.000E+00  0.000E+00  0.000E+00  1.06759E+03  1.080E+00  1.200E+01  6.000E-02  1.360E+00
   1    6    6     2     3    2.0637E+01  2.4435E-01   2.0393E+01  0.000E+00  0.000E+00  0.000E+00  1.06286E+03  1.072E+00  1.200E+01  6.000E-02  1.357E+00
   1    7    6     2     4    2.0393E+01  2.4389E-01   2.0149E+01  0.000E+00  0.000E+00  0.000E+00  1.05814E+03  1.065E+00  1.200E+01  6.000E-02  1.355E+00
   1    8    6     2     5    2.0149E+01  2.4343E-01   1.9906E+01  0.000E+00  0.000E+00  0.000E+00  1.05342E+03  1.057E+00  1.200E+01  6.000E-02  1.352E+00
   1    3    5     3     1    2.0000E+00  2.8252E-01   1.7175E+00  0.000E+00  0.000E+00  0.000E+00  1.07555E+03  1.909E+00  9.636E+00  7.227E-02  1.955E+00
   1    3    6     3     2    1.7175E+00  2.4905E-01   1.4684E+00  0.000E+00  0.000E+00  0.000E+00  1.07264E+03  1.727E+00  8.909E+00  6.682E-02  1.864E+00
   1    3    7     3     3    1.4684E+00  1.9718E-01   1.2712E+00  0.000E+00  0.000E+00  0.000E+00  1.06987E+03  1.555E+00  8.218E+00  5.547E-02  1.777E+00
   1    4    8     3     4    1.2712E+00  2.2567E-01   1.0456E+00  0.000E+00  0.000E+00  0.000E+00  1.06682E+03  1.364E+00  7.455E+00  6.709E-02  1.682E+00
   1    5    8     3     5    1.0456E+00  1.5790E-01   8.8768E-01  0.000E+00  0.000E+00  0.000E+00  1.06362E+03  1.164E+00  6.655E+00  4.991E-02  1.582E+00
   1    6    8     3     6    8.8768E-01  5.5980E-02   8.3170E-01  0.000E+00  0.000E+00  0.000E+00  1.06158E+03  1.036E+00  6.145E+00  1.844E-02  1.518E+00
   1    5   10     4     1    1.0000E+01  9.0919E-02   9.9091E+00  0.000E+00  0.000E+00  0.000E+00  1.07836E+03  6.368E-01  1.000E+01  2.500E-02  1.212E+00
   1    5    9     4     2    9.9091E+00  1.8158E-01   9.7275E+00  0.000E+00  0.000E+00  0.000E+00  1.07154E+03  6.315E-01  1.000E+01  5.000E-02  1.211E+00
   1    6    8     4     3    9.7275E+00  1.2689E-01   9.6006E+00  0.000E+00  0.000E+00  0.000E+00  1.06381E+03  6.256E-01  1.000E+01  3.500E-02  1.209E+00
   1    6    8     5     1    1.0432E+01  2.2686E-01   1.0205E+01  0.000E+00  0.000E+00  0.000E+00  1.05868E+03  6.790E-01  1.542E+01  6.166E-02  1.226E+00
   1    7    7     5     2    1.0205E+01  2.7894E-01   9.9265E+00  0.000E+00  0.000E+00  0.000E+00  1.05417E+03  6.732E-01  1.519E+01  7.594E-02  1.224E+00
   1    8    7     5     3    9.9265E+00  1.9221E-01   9.7343E+00  0.000E+00  0.000E+00  0.000E+00  1.04992E+03  6.676E-01  1.497E+01  5.241E-02  1.223E+00
   1    8    6     5     4    9.7343E+00  1.3577E-01   9.5985E+00  0.000E+00  0.000E+00  0.000E+00  1.04691E+03  6.637E-01  1.482E+01  3.706E-02  1.221E+00
   1    9    6     6     1    2.9504E+01  2.6070E-01   2.9244E+01  0.000E+00  0.000E+00  0.000E+00  1.04407E+03  1.345E+00  1.200E+01  6.000E-02  1.448E+00
   1   10    7     6     2    2.9244E+01  2.6027E-01   2.8983E+01  0.000E+00  0.000E+00  0.000E+00  1.03952E+03  1.338E+00  1.200E+01  6.000E-02  1.446E+00
   1   11    7     6     3    2.8983E+01  2.5984E-01   2.8723E+01  0.000E+00  0.000E+00  0.000E+00  1.03497E+03  1.331E+00  1.200E+01  6.000E-02  1.444E+00
   1   12    7     6     4    2.8723E+01  2.5941E-01   2.8464E+01  0.000E+00  0.000E+00  0.000E+00  1.03041E+03  1.324E+00  1.200E+01  6.000E-02  1.441E+00
   1   13    7     6     5    2.8464E+01  4.4560E-03   2.8460E+01  0.000E+00  0.000E+00  0.000E+00  1.02723E+03  1.320E+00  1.200E+01  2.400E-02  6.189E-02
   1   14    9     7     1    1.5000E+02  1.3342E+00   1.4867E+02  0.000E+00  0.000E+00  0.000E+00  1.03987E+03  2.288E+00  5.529E+01  5.593E-01  7.952E-01
   1   13    8     7     2    1.4867E+02  1.8385E+00   1.4683E+02  0.000E+00  0.000E+00  0.000E+00  1.03478E+03  2.279E+00  5.526E+01  6.148E-01  9.969E-01
   1   13    7     7     3    1.4683E+02  1.4779E+00   1.4535E+02  0.000E+00  0.000E+00  0.000E+00  1.02969E+03  2.270E+00  5.522E+01  5.585E-01  8.822E-01
   1   13    6     8     1    1.7381E+02  9.4363E-01   1.7287E+02  0.000E+00  0.000E+00  0.000E+00  1.02485E+03  2.974E+00  4.312E+01  4.394E-01  7.158E-01
   1   13    5     8     2    1.7287E+02  1.9336E-01   1.7267E+02  0.000E+00  0.000E+00  0.000E+00  1.01860E+03  2.970E+00  4.307E+01  4.389E-01  1.469E-01
   1   13    4     8     3    1.7267E+02 -2.3862E+00   1.7506E+02  0.000E+00  0.000E+00  0.000E+00  1.01235E+03  2.977E+00  4.317E+01  4.399E+00 -1.808E-01
   1   13    3     8     4    1.7506E+02 -3.6502E+00   1.7871E+02  0.000E+00  0.000E+00  0.000E+00  1.00612E+03  2.996E+00  4.345E+01  4.428E+00 -2.748E-01
   1   13    2     8     5    1.7871E+02 -2.6112E+00   1.8132E+02  0.000E+00  0.000E+00  0.000E+00  9.99891E+02  3.016E+00  4.374E+01  4.457E+00 -1.953E-01
   1   13    1     8     6    1.8132E+02 -2.0292E+00   1.8335E+02  0.000E+00  0.000E+00  0.000E+00  9.94906E+02  3.031E+00  4.395E+01  2.687E+00 -2.517E-01





UNSATURATED ZONE PACKAGE VOLUMETRIC BUDGET FOR  TIME STEP    30 STRESS PERIOD   22
  ------------------------------------------------------------------------------



     CUMULATIVE VOLUMES      L**3       RATES FOR THIS TIME STEP      L**3/T
     ------------------                 ------------------------

           IN:                                      IN:
           ---                                      ---
        INFILTRATION =   854682298.1020          INFILTRATION =          12.0671

          OUT:                                     OUT:
          ----                                     ----
              UZF ET =   853913927.5972                UZF ET =          12.0675
        UZF RECHARGE =       73224.0000          UZF RECHARGE =       0.0000E+00

            IN - OUT =      695146.5048              IN - OUT =      -4.4560E-04

          STORAGE:                                 STORAGE:
          --------                                 --------
      STORAGE CHANGE =      695140.3993        STORAGE CHANGE =      -4.4554E-04

 PERCENT DISCREPANCY IS DIFFERENCE BETWEEN IN-OUT MINUS CHANGE IN STORAGE
 DIVIDED BY THE AVERAGE OF IN AND OUT TIMES 100

 PERCENT DISCREPANCY =           0.00     PERCENT DISCREPANCY =           0.00






1
  VOLUMETRIC BUDGET FOR AGRICULTURAL FIELDS AT  END OF TIME STEP   30, STRESS PERIOD  22
  ------------------------------------------------------------------------------

     CUMULATIVE VOLUMES      L**3       RATES FOR THIS TIME STEP      L**3/T
     ------------------                 ------------------------

           IN:                                      IN:
           ---                                      ---
               AG WELLS  =   807799168.0000                 AG WELLS  =          11.2196
      DIVERSION SEGMENTS =           0.0000        DIVERSION SEGMENTS =           0.0000
       IRRIGATION PONDS  =           0.0000         IRRIGATION PONDS  =           0.0000
           GW IRRIGATION =           0.0000             GW IRRIGATION =           0.0000
           SW IRRIGATION =           0.0000             SW IRRIGATION =           0.0000
        SYSTEM LOSSES GW =           0.0000          SYSTEM LOSSES GW =           0.0000
        SYSTEM LOSSES SW =           0.0000          SYSTEM LOSSES SW =           0.0000

                TOTAL IN =   807799168.0000                  TOTAL IN =          11.2196

          OUT:                                     OUT:
          ----                                     ----
               AG WELLS  =           0.0000                 AG WELLS  =           0.0000
      DIVERSION SEGMENTS =           0.0000        DIVERSION SEGMENTS =           0.0000
       IRRIGATION PONDS  =           0.0000         IRRIGATION PONDS  =           0.0000
           GW IRRIGATION =   807799168.0000             GW IRRIGATION =          11.2196
           SW IRRIGATION =           0.0000             SW IRRIGATION =           0.0000
        SYSTEM LOSSES GW =           0.0000          SYSTEM LOSSES GW =           0.0000
        SYSTEM LOSSES SW =           0.0000          SYSTEM LOSSES SW =           0.0000

               TOTAL OUT =   807799168.0000                 TOTAL OUT =          11.2196

                IN - OUT =           0.0000                  IN - OUT =           0.0000

     PERCENT DISCREPANCY =           0.00         PERCENT DISCREPANCY =           0.00



1
  VOLUMETRIC BUDGET FOR ENTIRE MODEL AT END OF TIME STEP   30, STRESS PERIOD  22
  ------------------------------------------------------------------------------

     CUMULATIVE VOLUMES      L**3       RATES FOR THIS TIME STEP      L**3/T
     ------------------                 ------------------------

           IN:                                      IN:
           ---                                      ---
             STORAGE     =   996930944.0000               STORAGE     =          19.8774
       CONSTANT HEAD     =           0.0000         CONSTANT HEAD     =           0.0000
     HEAD DEP BOUNDS     =    15789191.0000       HEAD DEP BOUNDS     =           0.2857
      STREAM LEAKAGE     =   692650560.0000        STREAM LEAKAGE     =          11.7595
        UZF RECHARGE     =       73223.9531          UZF RECHARGE     =           0.0000
               GW ET     =           0.0000                 GW ET     =           0.0000
     SURFACE LEAKAGE     =           0.0000       SURFACE LEAKAGE     =           0.0000
           AG WELLS      =           0.0000             AG WELLS      =           0.0000

                TOTAL IN =  1705443840.0000                  TOTAL IN =          31.9225

          OUT:                                     OUT:
          ----                                     ----
             STORAGE     =   291061184.0000               STORAGE     =           9.7351
       CONSTANT HEAD     =           0.0000         CONSTANT HEAD     =           0.0000
     HEAD DEP BOUNDS     =    16297022.0000       HEAD DEP BOUNDS     =           0.2911
      STREAM LEAKAGE     =   572686720.0000        STREAM LEAKAGE     =          10.6768
        UZF RECHARGE     =           0.0000          UZF RECHARGE     =           0.0000
               GW ET     =    17603406.0000                 GW ET     =           0.0000
     SURFACE LEAKAGE     =           0.0000       SURFACE LEAKAGE     =           0.0000
           AG WELLS      =   807799168.0000             AG WELLS      =          11.2196

               TOTAL OUT =  1705447424.0000                 TOTAL OUT =          31.9225

                IN - OUT =       -3584.0000                  IN - OUT =       1.1444E-05

     PERCENT DISCREPANCY =          -0.00         PERCENT DISCREPANCY =           0.00






         TIME SUMMARY AT END OF TIME STEP   30 IN STRESS PERIOD   22
                    SECONDS     MINUTES      HOURS       DAYS        YEARS
                    -----------------------------------------------------------
   TIME STEP LENGTH  87667.      1461.1      24.352      1.0147     2.77799E-03
 STRESS PERIOD TIME 2.63000E+06  43833.      730.56      30.440     8.33397E-02
         TOTAL TIME 5.53166E+07 9.21944E+05  15366.      640.24      1.7529    
1
1
                            STRESS PERIOD NO.   23, LENGTH =   2630000.    
                            -----------------------------------------------

                              NUMBER OF TIME STEPS =    30

                               MULTIPLIER FOR DELT =     1.000

                            INITIAL TIME STEP SIZE =   87666.66    

 REUSING NON-PARAMETER GHB CELLS FROM LAST STRESS PERIOD

      2 GHB CELLS

 REUSING STREAM SEGMENT DATA FROM LAST STRESS PERIOD



            AREAL INFILTRATION RATE
 READING ON UNIT   19 WITH FORMAT: (FREE)              

            1           2           3           4           5           6           7           8           9          10
 ........................................................................................................................
   1   1.0000E-10  2.0000E-10   0.000       0.000       0.000       0.000       0.000       0.000       0.000       0.000    
   2   2.0000E-10  1.0000E-10  2.0000E-10   0.000       0.000      8.0000E-10  8.0000E-10  5.0000E-10   0.000       0.000    
   3    0.000      5.0000E-10  1.0000E-10  1.0000E-10  8.0000E-10  8.0000E-10  5.0000E-10  5.0000E-10   0.000       0.000    
   4   8.0000E-10  5.0000E-10  1.0000E-10  1.0000E-10  1.0000E-10  1.0000E-10  1.0000E-10  1.0000E-10  2.0000E-10   0.000    
   5   8.0000E-10  5.0000E-10  1.0000E-10  1.0000E-10  1.0000E-10  1.0000E-10  1.0000E-10  1.0000E-10  1.0000E-10  1.0000E-10
   6   8.0000E-10  5.0000E-10  5.0000E-10  2.0000E-10  2.0000E-10  1.0000E-10  1.0000E-10  1.0000E-10  1.0000E-10  5.0000E-10
   7   8.0000E-10  5.0000E-10  5.0000E-10  2.0000E-10  2.0000E-10  1.0000E-10  1.0000E-10  2.0000E-10  2.0000E-10   0.000    
   8    0.000      5.0000E-10  5.0000E-10  2.0000E-10  2.0000E-10  1.0000E-10  1.0000E-10  2.0000E-10  5.0000E-10   0.000    
   9    0.000      5.0000E-10  5.0000E-10  2.0000E-10  2.0000E-10  1.0000E-10  1.0000E-10  2.0000E-10  5.0000E-10   0.000    
  10    0.000      5.0000E-10  5.0000E-10  2.0000E-10  2.0000E-10  1.0000E-10  1.0000E-10  2.0000E-10  5.0000E-10  8.0000E-10
  11    0.000      1.0000E-10  1.0000E-10  1.0000E-10  1.0000E-10  1.0000E-10  1.0000E-10  2.0000E-10  5.0000E-10   0.000    
  12   1.0000E-10  1.0000E-10  1.0000E-10  1.0000E-10  1.0000E-10  1.0000E-10  1.0000E-10  1.0000E-10  2.0000E-10   0.000    
  13   1.0000E-10  1.0000E-10  2.0000E-10  2.0000E-10  2.0000E-10  2.0000E-10  2.0000E-10  1.0000E-10  1.0000E-10   0.000    
  14    0.000      2.0000E-10  5.0000E-10  5.0000E-10  5.0000E-10  5.0000E-10  5.0000E-10  2.0000E-10  1.0000E-10   0.000    
  15    0.000       0.000      8.0000E-10  8.0000E-10  8.0000E-10  8.0000E-10   0.000       0.000       0.000       0.000    

                  ET RATE =  5.000000E-09

 USING ET EXTINCTION DEPTH FROM PREVIOUS STRESS PERIOD. CURRENT PERIOD IS:      23

 USING EXTINCTION WATER CONTENT FROM PREVIOUS STRESS PERIOD. CURRENT PERIOD IS:      23

 USING AIR ENTRY PRESSURE FROM PREVIOUS STRESS PERIOD. CURRENT PERIOD IS:      23

 USING ROOT PRESSURE HEAD FROM PREVIOUS STRESS PERIOD. CURRENT PERIOD IS:      23

 USING ROOT ACTIVITY FROM PREVIOUS STRESS PERIOD. CURRENT PERIOD IS:      23

 PROCESSING AG STRESS PERIOD DATA

 READING AG STRESS PERIOD DATA

 READING IRRIGATION WELL

 NO IRRPOND OR REUSING IRRPOND DATA FROM LAST STRESS PERIOD

 END PROCESSING AG STRESS PERIOD DATA OPTIONS
 
 SOLVING FOR HEAD 
                                                   Max.-Head-Change                         Max.-Flux-Residual
  Residual-Control   Outer-Iter.   Inner-Iter.     Column Row Layer    Maximum-Head-Change  Column Row Layer    Maximum-Flux-Residual          L2-NORM 
          0                 1           2             4    7     1       0.7543267432E-01       4    7    1         0.3960390601E+01      0.8973776912E+01
          0                 2           2             4    7     1      -0.7337603623E-02       4    7    1        -0.3960432520E+00      0.8973655458E+00
          0                 3           2             4    7     1       0.4996630047E-03       4    7    1         0.2772299995E-01      0.6281449837E-01
          0                 4           1             4    7     1      -0.1988206111E-04       4    7    1        -0.1133872472E-02      0.2569040928E-02

    ------------------------------------------------
       NWT REQUIRED            4 OUTER ITERATIONS 
       AND A TOTAL OF          7 INNER ITERATIONS.
    ------------------------------------------------

 NO OUTPUT CONTROL FOR STRESS PERIOD   23   TIME STEP    1
 
 SOLVING FOR HEAD 
                                                   Max.-Head-Change                         Max.-Flux-Residual
  Residual-Control   Outer-Iter.   Inner-Iter.     Column Row Layer    Maximum-Head-Change  Column Row Layer    Maximum-Flux-Residual          L2-NORM 
          0                 1           2             4    7     1       0.7462935316E-01       4    7    1         0.3919288190E+01      0.8795946675E+01
          0                 2           2             4    7     1      -0.7259464438E-02       4    7    1        -0.3919331472E+00      0.8795840832E+00
          0                 3           2             4    7     1       0.4943419957E-03       4    7    1         0.2743529120E-01      0.6156991957E-01
          0                 4           1             4    7     1      -0.1967033316E-04       4    7    1        -0.1122105170E-02      0.2518156026E-02

    ------------------------------------------------
       NWT REQUIRED            4 OUTER ITERATIONS 
       AND A TOTAL OF          7 INNER ITERATIONS.
    ------------------------------------------------

 NO OUTPUT CONTROL FOR STRESS PERIOD   23   TIME STEP    2
 
 SOLVING FOR HEAD 
                                                   Max.-Head-Change                         Max.-Flux-Residual
  Residual-Control   Outer-Iter.   Inner-Iter.     Column Row Layer    Maximum-Head-Change  Column Row Layer    Maximum-Flux-Residual          L2-NORM 
          0                 1           2             4    7     1       0.7381547652E-01       4    7    1         0.3877543377E+01      0.8624899592E+01
          0                 2           2             4    7     1      -0.7185705392E-02       4    7    1        -0.3881531836E+00      0.8625028174E+00
          0                 3           2             4    7     1       0.4893192322E-03       4    7    1         0.2717069052E-01      0.6037436627E-01
          0                 4           1             4    7     1      -0.1947047314E-04       4    7    1        -0.1111283002E-02      0.2469276933E-02

    ------------------------------------------------
       NWT REQUIRED            4 OUTER ITERATIONS 
       AND A TOTAL OF          7 INNER ITERATIONS.
    ------------------------------------------------

 NO OUTPUT CONTROL FOR STRESS PERIOD   23   TIME STEP    3
 
 SOLVING FOR HEAD 
                                                   Max.-Head-Change                         Max.-Flux-Residual
  Residual-Control   Outer-Iter.   Inner-Iter.     Column Row Layer    Maximum-Head-Change  Column Row Layer    Maximum-Flux-Residual          L2-NORM 
          0                 1           2             4    7     1       0.7297152236E-01       4    7    1         0.3834977547E+01      0.8460212338E+01
          0                 2           2             4    7     1      -0.7098208317E-02       4    7    1        -0.3835024700E+00      0.8460132421E+00
          0                 3           2             4    7     1       0.4833609968E-03       4    7    1         0.2684513987E-01      0.5922014218E-01
          0                 4           1             4    7     1      -0.1923338949E-04       4    7    1        -0.1097967965E-02      0.2422048041E-02

    ------------------------------------------------
       NWT REQUIRED            4 OUTER ITERATIONS 
       AND A TOTAL OF          7 INNER ITERATIONS.
    ------------------------------------------------

 NO OUTPUT CONTROL FOR STRESS PERIOD   23   TIME STEP    4
 
 SOLVING FOR HEAD 
                                                   Max.-Head-Change                         Max.-Flux-Residual
  Residual-Control   Outer-Iter.   Inner-Iter.     Column Row Layer    Maximum-Head-Change  Column Row Layer    Maximum-Flux-Residual          L2-NORM 
          0                 1           2             4    7     1       0.7212637055E-01       4    7    1         0.3791413976E+01      0.8301472265E+01
          0                 2           2             4    7     1      -0.7016080312E-02       4    7    1        -0.3791461876E+00      0.8301622275E+00
          0                 3           2             4    7     1       0.4777683731E-03       4    7    1         0.2654019932E-01      0.5811064431E-01
          0                 4           1             4    7     1      -0.1901085360E-04       4    7    1        -0.1085495871E-02      0.2376681120E-02

    ------------------------------------------------
       NWT REQUIRED            4 OUTER ITERATIONS 
       AND A TOTAL OF          7 INNER ITERATIONS.
    ------------------------------------------------

 NO OUTPUT CONTROL FOR STRESS PERIOD   23   TIME STEP    5
 
 SOLVING FOR HEAD 
                                                   Max.-Head-Change                         Max.-Flux-Residual
  Residual-Control   Outer-Iter.   Inner-Iter.     Column Row Layer    Maximum-Head-Change  Column Row Layer    Maximum-Flux-Residual          L2-NORM 
          0                 1           2             4    7     1       0.7127573102E-01       4    7    1         0.3747495868E+01      0.8148336557E+01
          0                 2           2             4    7     1      -0.6933256117E-02       4    7    1        -0.3747544341E+00      0.8148276446E+00
          0                 3           2             4    7     1       0.4721283429E-03       4    7    1         0.2623277584E-01      0.5703729262E-01
          0                 4           1             4    7     1      -0.1878643134E-04       4    7    1        -0.1072922225E-02      0.2332801986E-02

    ------------------------------------------------
       NWT REQUIRED            4 OUTER ITERATIONS 
       AND A TOTAL OF          7 INNER ITERATIONS.
    ------------------------------------------------

 NO OUTPUT CONTROL FOR STRESS PERIOD   23   TIME STEP    6
 
 SOLVING FOR HEAD 
                                                   Max.-Head-Change                         Max.-Flux-Residual
  Residual-Control   Outer-Iter.   Inner-Iter.     Column Row Layer    Maximum-Head-Change  Column Row Layer    Maximum-Flux-Residual          L2-NORM 
          0                 1           2             4    7     1       0.7042141427E-01       4    7    1         0.3703309102E+01      0.8000501437E+01
          0                 2           2             4    7     1      -0.6850155013E-02       4    7    1        -0.3703357977E+00      0.8000449250E+00
          0                 3           2             4    7     1       0.4664694602E-03       4    7    1         0.2592347079E-01      0.5600255405E-01
          0                 4           1             4    7     1      -0.1856125937E-04       4    7    1        -0.1060271650E-02      0.2290467515E-02

    ------------------------------------------------
       NWT REQUIRED            4 OUTER ITERATIONS 
       AND A TOTAL OF          7 INNER ITERATIONS.
    ------------------------------------------------

 NO OUTPUT CONTROL FOR STRESS PERIOD   23   TIME STEP    7
 
 SOLVING FOR HEAD 
                                                   Max.-Head-Change                         Max.-Flux-Residual
  Residual-Control   Outer-Iter.   Inner-Iter.     Column Row Layer    Maximum-Head-Change  Column Row Layer    Maximum-Flux-Residual          L2-NORM 
          0                 1           2             4    7     1       0.6956439344E-01       4    7    1         0.3658912794E+01      0.7857667767E+01
          0                 2           2             4    7     1      -0.6766790648E-02       4    7    1        -0.3658961918E+00      0.7857622827E+00
          0                 3           2             4    7     1       0.4607926522E-03       4    7    1         0.2561269801E-01      0.5500279405E-01
          0                 4           1             4    7     1      -0.1833537406E-04       4    7    1        -0.1047561030E-02      0.2249582802E-02

    ------------------------------------------------
       NWT REQUIRED            4 OUTER ITERATIONS 
       AND A TOTAL OF          7 INNER ITERATIONS.
    ------------------------------------------------

 NO OUTPUT CONTROL FOR STRESS PERIOD   23   TIME STEP    8
 
 SOLVING FOR HEAD 
                                                   Max.-Head-Change                         Max.-Flux-Residual
  Residual-Control   Outer-Iter.   Inner-Iter.     Column Row Layer    Maximum-Head-Change  Column Row Layer    Maximum-Flux-Residual          L2-NORM 
          0                 1           2             4    7     1       0.6870630493E-01       4    7    1         0.3614398052E+01      0.7719566018E+01
          0                 2           2             4    7     1      -0.6683322224E-02       4    7    1        -0.3614447289E+00      0.7719527227E+00
          0                 3           2             4    7     1       0.4551087601E-03       4    7    1         0.2530109536E-01      0.5403617702E-01
          0                 4           1             4    7     1      -0.1810920670E-04       4    7    1        -0.1034816465E-02      0.2210052251E-02

    ------------------------------------------------
       NWT REQUIRED            4 OUTER ITERATIONS 
       AND A TOTAL OF          7 INNER ITERATIONS.
    ------------------------------------------------

 NO OUTPUT CONTROL FOR STRESS PERIOD   23   TIME STEP    9
 
 SOLVING FOR HEAD 
                                                   Max.-Head-Change                         Max.-Flux-Residual
  Residual-Control   Outer-Iter.   Inner-Iter.     Column Row Layer    Maximum-Head-Change  Column Row Layer    Maximum-Flux-Residual          L2-NORM 
          0                 1           2             4    7     1       0.6784787622E-01       4    7    1         0.3569806116E+01      0.7585943660E+01
          0                 2           2             4    7     1      -0.6599820524E-02       4    7    1        -0.3569855344E+00      0.7585983259E+00
          0                 3           2             4    7     1       0.4494226040E-03       4    7    1         0.2498895163E-01      0.5310142034E-01
          0                 4           1             4    7     1      -0.1788294896E-04       4    7    1        -0.1022049765E-02      0.2171822754E-02

    ------------------------------------------------
       NWT REQUIRED            4 OUTER ITERATIONS 
       AND A TOTAL OF          7 INNER ITERATIONS.
    ------------------------------------------------

 NO OUTPUT CONTROL FOR STRESS PERIOD   23   TIME STEP   10
 
 SOLVING FOR HEAD 
                                                   Max.-Head-Change                         Max.-Flux-Residual
  Residual-Control   Outer-Iter.   Inner-Iter.     Column Row Layer    Maximum-Head-Change  Column Row Layer    Maximum-Flux-Residual          L2-NORM 
          0                 1           2             4    7     1       0.6699029511E-01       4    7    1         0.3525203778E+01      0.7456544414E+01
          0                 2           2             4    7     1      -0.6516401107E-02       4    7    1        -0.3525252885E+00      0.7456516327E+00
          0                 3           2             4    7     1       0.4437420522E-03       4    7    1         0.2467673439E-01      0.5219519222E-01
          0                 4           1             4    7     1      -0.1765691468E-04       4    7    1        -0.1009280049E-02      0.2134752894E-02

    ------------------------------------------------
       NWT REQUIRED            4 OUTER ITERATIONS 
       AND A TOTAL OF          7 INNER ITERATIONS.
    ------------------------------------------------

 NO OUTPUT CONTROL FOR STRESS PERIOD   23   TIME STEP   11
 
 SOLVING FOR HEAD 
                                                   Max.-Head-Change                         Max.-Flux-Residual
  Residual-Control   Outer-Iter.   Inner-Iter.     Column Row Layer    Maximum-Head-Change  Column Row Layer    Maximum-Flux-Residual          L2-NORM 
          0                 1           2             4    7     1       0.6613466748E-01       4    7    1         0.3480652625E+01      0.7331176672E+01
          0                 2           2             4    7     1      -0.6433171564E-02       4    7    1        -0.3480701513E+00      0.7331152296E+00
          0                 3           2             4    7     1       0.4380744321E-03       4    7    1         0.2436487486E-01      0.5131761168E-01
          0                 4           1             4    7     1      -0.1743139456E-04       4    7    1        -0.9965249869E-03      0.2098869943E-02

    ------------------------------------------------
       NWT REQUIRED            4 OUTER ITERATIONS 
       AND A TOTAL OF          7 INNER ITERATIONS.
    ------------------------------------------------

 NO OUTPUT CONTROL FOR STRESS PERIOD   23   TIME STEP   12
 
 SOLVING FOR HEAD 
                                                   Max.-Head-Change                         Max.-Flux-Residual
  Residual-Control   Outer-Iter.   Inner-Iter.     Column Row Layer    Maximum-Head-Change  Column Row Layer    Maximum-Flux-Residual          L2-NORM 
          0                 1           2             4    7     1       0.6528174145E-01       4    7    1         0.3436195455E+01      0.7209625733E+01
          0                 2           2             4    7     1      -0.6350204681E-02       4    7    1        -0.3436244037E+00      0.7209605731E+00
          0                 3           2             4    7     1       0.4324246989E-03       4    7    1         0.2405367267E-01      0.5046686309E-01
          0                 4           1             4    7     1      -0.1720658628E-04       4    7    1        -0.9837967818E-03      0.2064071340E-02

    ------------------------------------------------
       NWT REQUIRED            4 OUTER ITERATIONS 
       AND A TOTAL OF          7 INNER ITERATIONS.
    ------------------------------------------------

 NO OUTPUT CONTROL FOR STRESS PERIOD   23   TIME STEP   13
 
 SOLVING FOR HEAD 
                                                   Max.-Head-Change                         Max.-Flux-Residual
  Residual-Control   Outer-Iter.   Inner-Iter.     Column Row Layer    Maximum-Head-Change  Column Row Layer    Maximum-Flux-Residual          L2-NORM 
          0                 1           2             4    7     1       0.6443247010E-01       4    7    1         0.3391885601E+01      0.7091714506E+01
          0                 2           2             4    7     1      -0.6267593184E-02       4    7    1        -0.3391933798E+00      0.7091697941E+00
          0                 3           2             4    7     1       0.4267991680E-03       4    7    1         0.2374350124E-01      0.4964154239E-01
          0                 4           1             4    7     1      -0.1698274138E-04       4    7    1        -0.9711107641E-03      0.2030326507E-02

    ------------------------------------------------
       NWT REQUIRED            4 OUTER ITERATIONS 
       AND A TOTAL OF          7 INNER ITERATIONS.
    ------------------------------------------------

 NO OUTPUT CONTROL FOR STRESS PERIOD   23   TIME STEP   14
 
 SOLVING FOR HEAD 
                                                   Max.-Head-Change                         Max.-Flux-Residual
  Residual-Control   Outer-Iter.   Inner-Iter.     Column Row Layer    Maximum-Head-Change  Column Row Layer    Maximum-Flux-Residual          L2-NORM 
          0                 1           2             4    7     1       0.6358732593E-01       4    7    1         0.3347750660E+01      0.6977251798E+01
          0                 2           2             4    7     1      -0.6185383044E-02       4    7    1        -0.3347798402E+00      0.6977238120E+00
          0                 3           2             4    7     1       0.4212009686E-03       4    7    1         0.2343455376E-01      0.4884034053E-01
          0                 4           1             4    7     1      -0.1675998410E-04       4    7    1        -0.9584748018E-03      0.1997554677E-02

    ------------------------------------------------
       NWT REQUIRED            4 OUTER ITERATIONS 
       AND A TOTAL OF          7 INNER ITERATIONS.
    ------------------------------------------------

 NO OUTPUT CONTROL FOR STRESS PERIOD   23   TIME STEP   15
 
 SOLVING FOR HEAD 
                                                   Max.-Head-Change                         Max.-Flux-Residual
  Residual-Control   Outer-Iter.   Inner-Iter.     Column Row Layer    Maximum-Head-Change  Column Row Layer    Maximum-Flux-Residual          L2-NORM 
          0                 1           2             4    7     1       0.6274726977E-01       4    7    1         0.3303844225E+01      0.6866093677E+01
          0                 2           2             4    7     1      -0.6103667739E-02       4    7    1        -0.3303891451E+00      0.6866082364E+00
          0                 3           2             4    7     1       0.4156364664E-03       4    7    1         0.2312720546E-01      0.4806225419E-01
          0                 4           1             4    7     1      -0.1653856690E-04       4    7    1        -0.9459042187E-03      0.1965720805E-02

    ------------------------------------------------
       NWT REQUIRED            4 OUTER ITERATIONS 
       AND A TOTAL OF          7 INNER ITERATIONS.
    ------------------------------------------------

 NO OUTPUT CONTROL FOR STRESS PERIOD   23   TIME STEP   16
 
 SOLVING FOR HEAD 
                                                   Max.-Head-Change                         Max.-Flux-Residual
  Residual-Control   Outer-Iter.   Inner-Iter.     Column Row Layer    Maximum-Head-Change  Column Row Layer    Maximum-Flux-Residual          L2-NORM 
          0                 1           2             4    7     1       0.6191290841E-01       4    7    1         0.3260201568E+01      0.6758073659E+01
          0                 2           2             4    7     1      -0.6022506304E-02       4    7    1        -0.3260248226E+00      0.6758064677E+00
          0                 3           2             4    7     1       0.4101096818E-03       4    7    1         0.2282170330E-01      0.4730616110E-01
          0                 4           1             4    7     1      -0.1631865073E-04       4    7    1        -0.9334091692E-03      0.1934800112E-02

    ------------------------------------------------
       NWT REQUIRED            4 OUTER ITERATIONS 
       AND A TOTAL OF          7 INNER ITERATIONS.
    ------------------------------------------------

 NO OUTPUT CONTROL FOR STRESS PERIOD   23   TIME STEP   17
 
 SOLVING FOR HEAD 
                                                   Max.-Head-Change                         Max.-Flux-Residual
  Residual-Control   Outer-Iter.   Inner-Iter.     Column Row Layer    Maximum-Head-Change  Column Row Layer    Maximum-Flux-Residual          L2-NORM 
          0                 1           2             4    7     1       0.6108467309E-01       4    7    1         0.3216846874E+01      0.6653058286E+01
          0                 2           2             4    7     1      -0.5941940696E-02       4    7    1        -0.3216892916E+00      0.6653051928E+00
          0                 3           2             4    7     1       0.4046234714E-03       4    7    1         0.2251821657E-01      0.4657116612E-01
          0                 4           1             4    7     1      -0.1610034957E-04       4    7    1        -0.9209965510E-03      0.1904740744E-02

    ------------------------------------------------
       NWT REQUIRED            4 OUTER ITERATIONS 
       AND A TOTAL OF          7 INNER ITERATIONS.
    ------------------------------------------------

 NO OUTPUT CONTROL FOR STRESS PERIOD   23   TIME STEP   18
 
 SOLVING FOR HEAD 
                                                   Max.-Head-Change                         Max.-Flux-Residual
  Residual-Control   Outer-Iter.   Inner-Iter.     Column Row Layer    Maximum-Head-Change  Column Row Layer    Maximum-Flux-Residual          L2-NORM 
          0                 1           2             4    7     1       0.6026320199E-01       4    7    1         0.3173817054E+01      0.6550908563E+01
          0                 2           2             4    7     1      -0.5862033002E-02       4    7    1        -0.3173862442E+00      0.6550903237E+00
          0                 3           2             4    7     1       0.3991820629E-03       4    7    1         0.2221700374E-01      0.4585606693E-01
          0                 4           1             4    7     1      -0.1588383071E-04       4    7    1        -0.9086769205E-03      0.1875512181E-02

    ------------------------------------------------
       NWT REQUIRED            4 OUTER ITERATIONS 
       AND A TOTAL OF          7 INNER ITERATIONS.
    ------------------------------------------------

 NO OUTPUT CONTROL FOR STRESS PERIOD   23   TIME STEP   19
 
 SOLVING FOR HEAD 
                                                   Max.-Head-Change                         Max.-Flux-Residual
  Residual-Control   Outer-Iter.   Inner-Iter.     Column Row Layer    Maximum-Head-Change  Column Row Layer    Maximum-Flux-Residual          L2-NORM 
          0                 1           2             4    7     1       0.5944894861E-01       4    7    1         0.3131137922E+01      0.6451507104E+01
          0                 2           2             4    7     1      -0.5782827346E-02       4    7    1        -0.3131182622E+00      0.6451502904E+00
          0                 3           2             4    7     1       0.3937884611E-03       4    7    1         0.2191824552E-01      0.4516028217E-01
          0                 4           1             4    7     1      -0.1566921444E-04       4    7    1        -0.8964576909E-03      0.1847042971E-02

    ------------------------------------------------
       NWT REQUIRED            4 OUTER ITERATIONS 
       AND A TOTAL OF          7 INNER ITERATIONS.
    ------------------------------------------------

 NO OUTPUT CONTROL FOR STRESS PERIOD   23   TIME STEP   20
 
 SOLVING FOR HEAD 
                                                   Max.-Head-Change                         Max.-Flux-Residual
  Residual-Control   Outer-Iter.   Inner-Iter.     Column Row Layer    Maximum-Head-Change  Column Row Layer    Maximum-Flux-Residual          L2-NORM 
          0                 1           2             4    7     1       0.5864218896E-01       4    7    1         0.3088825713E+01      0.6354732980E+01
          0                 2           2             4    7     1      -0.5704350581E-02       4    7    1        -0.3088869694E+00      0.6354730254E+00
          0                 3           2             4    7     1       0.3884444947E-03       4    7    1         0.2162205558E-01      0.4448287648E-01
          0                 4           1             4    7     1      -0.1545657296E-04       4    7    1        -0.8843434989E-03      0.1833632164E-02

    ------------------------------------------------
       NWT REQUIRED            4 OUTER ITERATIONS 
       AND A TOTAL OF          7 INNER ITERATIONS.
    ------------------------------------------------

 NO OUTPUT CONTROL FOR STRESS PERIOD   23   TIME STEP   21
 
 SOLVING FOR HEAD 
                                                   Max.-Head-Change                         Max.-Flux-Residual
  Residual-Control   Outer-Iter.   Inner-Iter.     Column Row Layer    Maximum-Head-Change  Column Row Layer    Maximum-Flux-Residual          L2-NORM 
          0                 1           2             4    7     1       0.5784341851E-01       4    7    1         0.3046909296E+01      0.6260470140E+01
          0                 2           2             4    7     1      -0.5626650913E-02       4    7    1        -0.3046952535E+00      0.6260468547E+00
          0                 3           2             4    7     1       0.3831534458E-03       4    7    1         0.2132863603E-01      0.4382306056E-01
          0                 4           1             4    7     1      -0.1524603716E-04       4    7    1        -0.8723426220E-03      0.1792360561E-02

    ------------------------------------------------
       NWT REQUIRED            4 OUTER ITERATIONS 
       AND A TOTAL OF          7 INNER ITERATIONS.
    ------------------------------------------------

 NO OUTPUT CONTROL FOR STRESS PERIOD   23   TIME STEP   22
 
 SOLVING FOR HEAD 
                                                   Max.-Head-Change                         Max.-Flux-Residual
  Residual-Control   Outer-Iter.   Inner-Iter.     Column Row Layer    Maximum-Head-Change  Column Row Layer    Maximum-Flux-Residual          L2-NORM 
          0                 1           2             4    7     1       0.5705309539E-01       4    7    1         0.3005414364E+01      0.6168632796E+01
          0                 2           2             4    7     1      -0.5549772911E-02       4    7    1        -0.3005456842E+00      0.6168631972E+00
          0                 3           2             4    7     1       0.3779183497E-03       4    7    1         0.2103816679E-01      0.4318021506E-01
          0                 4           1             4    7     1      -0.1503772746E-04       4    7    1        -0.8604623968E-03      0.1766058777E-02

    ------------------------------------------------
       NWT REQUIRED            4 OUTER ITERATIONS 
       AND A TOTAL OF          7 INNER ITERATIONS.
    ------------------------------------------------

 NO OUTPUT CONTROL FOR STRESS PERIOD   23   TIME STEP   23
 
 SOLVING FOR HEAD 
                                                   Max.-Head-Change                         Max.-Flux-Residual
  Residual-Control   Outer-Iter.   Inner-Iter.     Column Row Layer    Maximum-Head-Change  Column Row Layer    Maximum-Flux-Residual          L2-NORM 
          0                 1           2             4    7     1       0.5627136009E-01       4    7    1         0.2964350109E+01      0.6079109144E+01
          0                 2           2             4    7     1      -0.5473730244E-02       4    7    1        -0.2964391809E+00      0.6079109296E+00
          0                 3           2             4    7     1       0.3727401375E-03       4    7    1         0.2075071218E-01      0.4255357356E-01
          0                 4           1             4    7     1      -0.1483168141E-04       4    7    1        -0.8487054879E-03      0.1740436567E-02

    ------------------------------------------------
       NWT REQUIRED            4 OUTER ITERATIONS 
       AND A TOTAL OF          7 INNER ITERATIONS.
    ------------------------------------------------

 NO OUTPUT CONTROL FOR STRESS PERIOD   23   TIME STEP   24
 
 SOLVING FOR HEAD 
                                                   Max.-Head-Change                         Max.-Flux-Residual
  Residual-Control   Outer-Iter.   Inner-Iter.     Column Row Layer    Maximum-Head-Change  Column Row Layer    Maximum-Flux-Residual          L2-NORM 
          0                 1           2             4    7     1       0.5549845737E-01       4    7    1         0.2923731094E+01      0.5991818718E+01
          0                 2           2             4    7     1      -0.5398546729E-02       4    7    1        -0.2923772005E+00      0.5991819301E+00
          0                 3           2             4    7     1       0.3676204300E-03       4    7    1         0.2046637416E-01      0.4194254733E-01
          0                 4           1             4    7     1      -0.1462796358E-04       4    7    1        -0.8370760468E-03      0.1715448016E-02

    ------------------------------------------------
       NWT REQUIRED            4 OUTER ITERATIONS 
       AND A TOTAL OF          7 INNER ITERATIONS.
    ------------------------------------------------

 NO OUTPUT CONTROL FOR STRESS PERIOD   23   TIME STEP   25
 
 SOLVING FOR HEAD 
                                                   Max.-Head-Change                         Max.-Flux-Residual
  Residual-Control   Outer-Iter.   Inner-Iter.     Column Row Layer    Maximum-Head-Change  Column Row Layer    Maximum-Flux-Residual          L2-NORM 
          0                 1           2             4    7     1       0.5473473375E-01       4    7    1         0.2883577296E+01      0.5906664752E+01
          0                 2           2             4    7     1      -0.5324256078E-02       4    7    1        -0.2883617410E+00      0.5906665983E+00
          0                 3           2             4    7     1       0.3625615233E-03       4    7    1         0.2018529263E-01      0.4134647840E-01
          0                 4           1             4    7     1      -0.1442666493E-04       4    7    1        -0.8255797868E-03      0.1691062468E-02

    ------------------------------------------------
       NWT REQUIRED            4 OUTER ITERATIONS 
       AND A TOTAL OF          7 INNER ITERATIONS.
    ------------------------------------------------

 NO OUTPUT CONTROL FOR STRESS PERIOD   23   TIME STEP   26
 
 SOLVING FOR HEAD 
                                                   Max.-Head-Change                         Max.-Flux-Residual
  Residual-Control   Outer-Iter.   Inner-Iter.     Column Row Layer    Maximum-Head-Change  Column Row Layer    Maximum-Flux-Residual          L2-NORM 
          0                 1           2             4    7     1       0.5398023433E-01       4    7    1         0.2843892116E+01      0.5823576168E+01
          0                 2           2             4    7     1      -0.5250862680E-02       4    7    1        -0.2843931425E+00      0.5823577693E+00
          0                 3           2             4    7     1       0.3575637169E-03       4    7    1         0.1990749139E-01      0.4076486722E-01
          0                 4           1             4    7     1      -0.1422779743E-04       4    7    1        -0.8142177055E-03      0.1667279747E-02

    ------------------------------------------------
       NWT REQUIRED            4 OUTER ITERATIONS 
       AND A TOTAL OF          7 INNER ITERATIONS.
    ------------------------------------------------

 NO OUTPUT CONTROL FOR STRESS PERIOD   23   TIME STEP   27
 
 SOLVING FOR HEAD 
                                                   Max.-Head-Change                         Max.-Flux-Residual
  Residual-Control   Outer-Iter.   Inner-Iter.     Column Row Layer    Maximum-Head-Change  Column Row Layer    Maximum-Flux-Residual          L2-NORM 
          0                 1           2             4    7     1       0.5323524443E-01       4    7    1         0.2804692459E+01      0.5742472410E+01
          0                 2           2             4    7     1      -0.5178394294E-02       4    7    1        -0.2804730961E+00      0.5742474301E+00
          0                 3           2             4    7     1       0.3526288997E-03       4    7    1         0.1963308877E-01      0.4019714308E-01
          0                 4           1             4    7     1      -0.1403143625E-04       4    7    1        -0.8029946143E-03      0.1644053127E-02

    ------------------------------------------------
       NWT REQUIRED            4 OUTER ITERATIONS 
       AND A TOTAL OF          7 INNER ITERATIONS.
    ------------------------------------------------

 NO OUTPUT CONTROL FOR STRESS PERIOD   23   TIME STEP   28
 
 SOLVING FOR HEAD 
                                                   Max.-Head-Change                         Max.-Flux-Residual
  Residual-Control   Outer-Iter.   Inner-Iter.     Column Row Layer    Maximum-Head-Change  Column Row Layer    Maximum-Flux-Residual          L2-NORM 
          0                 1           2             4    7     1       0.5249988703E-01       4    7    1         0.2765985837E+01      0.5663282087E+01
          0                 2           2             4    7     1      -0.5106862886E-02       4    7    1        -0.2766023530E+00      0.5663284330E+00
          0                 3           2             4    7     1       0.3477578878E-03       4    7    1         0.1936213741E-01      0.3964282069E-01
          0                 4           1             4    7     1      -0.1383761399E-04       4    7    1        -0.7919126824E-03      0.1621386799E-02

    ------------------------------------------------
       NWT REQUIRED            4 OUTER ITERATIONS 
       AND A TOTAL OF          7 INNER ITERATIONS.
    ------------------------------------------------

 NO OUTPUT CONTROL FOR STRESS PERIOD   23   TIME STEP   29
 
 SOLVING FOR HEAD 
                                                   Max.-Head-Change                         Max.-Flux-Residual
  Residual-Control   Outer-Iter.   Inner-Iter.     Column Row Layer    Maximum-Head-Change  Column Row Layer    Maximum-Flux-Residual          L2-NORM 
          0                 1           2             4    7     1       0.5177425745E-01       4    7    1         0.2727778625E+01      0.5585936374E+01
          0                 2           2             4    7     1      -0.5036277730E-02       4    7    1        -0.2727815511E+00      0.5585938692E+00
          0                 3           2             4    7     1       0.3429513116E-03       4    7    1         0.1909468191E-01      0.3910140442E-01
          0                 4           1             4    7     1      -0.1364635607E-04       4    7    1        -0.7809737310E-03      0.1599245848E-02

    ------------------------------------------------
       NWT REQUIRED            4 OUTER ITERATIONS 
       AND A TOTAL OF          7 INNER ITERATIONS.
    ------------------------------------------------

 NO OUTPUT CONTROL FOR STRESS PERIOD   23   TIME STEP   30



 STREAM LISTING     PERIOD     23   STEP       30

 LAYER ROW COL. STREAM  RCH.  FLOW INTO     FLOW TO   FLOW OUT OF   OVRLND.     DIRECT     STREAM       STREAM     STREAM     STREAM   STREAMBED  STREAMBED
                SEG.NO.  NO.  STRM. RCH.    AQUIFER    STRM. RCH.    RUNOFF     PRECIP       ET          HEAD       DEPTH      WIDTH   CONDCTNC.   GRADIENT

   1    1    1     1     1    2.2000E+01  2.3088E-01   2.1769E+01  0.000E+00  0.000E+00  0.000E+00  1.09418E+03  1.132E+00  1.242E+01  5.588E-02  1.377E+00
   1    2    2     1     2    2.1769E+01  3.5689E-01   2.1413E+01  0.000E+00  0.000E+00  0.000E+00  1.08919E+03  1.127E+00  1.235E+01  8.648E-02  1.376E+00
   1    3    3     1     3    2.1413E+01  3.0372E-01   2.1109E+01  0.000E+00  0.000E+00  0.000E+00  1.08354E+03  1.121E+00  1.228E+01  7.369E-02  1.374E+00
   1    3    4     1     4    2.1109E+01  2.7914E-01   2.0830E+01  0.000E+00  0.000E+00  0.000E+00  1.07852E+03  1.117E+00  1.222E+01  6.781E-02  1.372E+00
   1    4    5     2     1    1.8830E+01  3.1306E-01   1.8517E+01  0.000E+00  0.000E+00  0.000E+00  1.07295E+03  1.014E+00  1.200E+01  7.800E-02  1.338E+00
   1    5    6     2     2    1.8517E+01  2.4027E-01   1.8276E+01  0.000E+00  0.000E+00  0.000E+00  1.06751E+03  1.005E+00  1.200E+01  6.000E-02  1.335E+00
   1    6    6     2     3    1.8276E+01  2.3980E-01   1.8037E+01  0.000E+00  0.000E+00  0.000E+00  1.06279E+03  9.967E-01  1.200E+01  6.000E-02  1.332E+00
   1    7    6     2     4    1.8037E+01  2.3933E-01   1.7797E+01  0.000E+00  0.000E+00  0.000E+00  1.05806E+03  9.888E-01  1.200E+01  6.000E-02  1.330E+00
   1    8    6     2     5    1.7797E+01  2.3885E-01   1.7558E+01  0.000E+00  0.000E+00  0.000E+00  1.05334E+03  9.808E-01  1.200E+01  6.000E-02  1.327E+00
   1    3    5     3     1    2.0000E+00  2.8252E-01   1.7175E+00  0.000E+00  0.000E+00  0.000E+00  1.07555E+03  1.909E+00  9.636E+00  7.227E-02  1.955E+00
   1    3    6     3     2    1.7175E+00  2.4905E-01   1.4684E+00  0.000E+00  0.000E+00  0.000E+00  1.07264E+03  1.727E+00  8.909E+00  6.682E-02  1.864E+00
   1    3    7     3     3    1.4684E+00  1.9718E-01   1.2712E+00  0.000E+00  0.000E+00  0.000E+00  1.06987E+03  1.555E+00  8.218E+00  5.547E-02  1.777E+00
   1    4    8     3     4    1.2712E+00  2.2567E-01   1.0456E+00  0.000E+00  0.000E+00  0.000E+00  1.06682E+03  1.364E+00  7.455E+00  6.709E-02  1.682E+00
   1    5    8     3     5    1.0456E+00  1.5790E-01   8.8768E-01  0.000E+00  0.000E+00  0.000E+00  1.06362E+03  1.164E+00  6.655E+00  4.991E-02  1.582E+00
   1    6    8     3     6    8.8768E-01  5.5980E-02   8.3170E-01  0.000E+00  0.000E+00  0.000E+00  1.06158E+03  1.036E+00  6.145E+00  1.844E-02  1.518E+00
   1    5   10     4     1    1.0000E+01  9.0919E-02   9.9091E+00  0.000E+00  0.000E+00  0.000E+00  1.07836E+03  6.368E-01  1.000E+01  2.500E-02  1.212E+00
   1    5    9     4     2    9.9091E+00  1.8158E-01   9.7275E+00  0.000E+00  0.000E+00  0.000E+00  1.07154E+03  6.315E-01  1.000E+01  5.000E-02  1.211E+00
   1    6    8     4     3    9.7275E+00  1.2689E-01   9.6006E+00  0.000E+00  0.000E+00  0.000E+00  1.06381E+03  6.256E-01  1.000E+01  3.500E-02  1.209E+00
   1    6    8     5     1    1.0432E+01  2.2686E-01   1.0205E+01  0.000E+00  0.000E+00  0.000E+00  1.05868E+03  6.790E-01  1.542E+01  6.166E-02  1.226E+00
   1    7    7     5     2    1.0205E+01  2.7894E-01   9.9265E+00  0.000E+00  0.000E+00  0.000E+00  1.05417E+03  6.732E-01  1.519E+01  7.594E-02  1.224E+00
   1    8    7     5     3    9.9265E+00  1.9221E-01   9.7343E+00  0.000E+00  0.000E+00  0.000E+00  1.04992E+03  6.676E-01  1.497E+01  5.241E-02  1.223E+00
   1    8    6     5     4    9.7343E+00  1.3577E-01   9.5985E+00  0.000E+00  0.000E+00  0.000E+00  1.04691E+03  6.637E-01  1.482E+01  3.706E-02  1.221E+00
   1    9    6     6     1    2.7157E+01  2.5677E-01   2.6900E+01  0.000E+00  0.000E+00  0.000E+00  1.04401E+03  1.280E+00  1.200E+01  6.000E-02  1.427E+00
   1   10    7     6     2    2.6900E+01  2.5634E-01   2.6644E+01  0.000E+00  0.000E+00  0.000E+00  1.03945E+03  1.272E+00  1.200E+01  6.000E-02  1.424E+00
   1   11    7     6     3    2.6644E+01  2.5590E-01   2.6388E+01  0.000E+00  0.000E+00  0.000E+00  1.03490E+03  1.265E+00  1.200E+01  6.000E-02  1.422E+00
   1   12    7     6     4    2.6388E+01  2.5546E-01   2.6132E+01  0.000E+00  0.000E+00  0.000E+00  1.03035E+03  1.258E+00  1.200E+01  6.000E-02  1.419E+00
   1   13    7     6     5    2.6132E+01  3.4725E-03   2.6129E+01  0.000E+00  0.000E+00  0.000E+00  1.02716E+03  1.254E+00  1.200E+01  2.400E-02  4.823E-02
   1   14    9     7     1    1.5000E+02  1.3352E+00   1.4866E+02  0.000E+00  0.000E+00  0.000E+00  1.03987E+03  2.288E+00  5.529E+01  5.593E-01  7.958E-01
   1   13    8     7     2    1.4866E+02  1.8440E+00   1.4682E+02  0.000E+00  0.000E+00  0.000E+00  1.03478E+03  2.279E+00  5.526E+01  6.148E-01  9.998E-01
   1   13    7     7     3    1.4682E+02  1.4918E+00   1.4533E+02  0.000E+00  0.000E+00  0.000E+00  1.02969E+03  2.270E+00  5.522E+01  5.584E-01  8.905E-01
   1   13    6     8     1    1.7146E+02  9.5134E-01   1.7051E+02  0.000E+00  0.000E+00  0.000E+00  1.02483E+03  2.959E+00  4.290E+01  4.372E-01  7.254E-01
   1   13    5     8     2    1.7051E+02  2.0652E-01   1.7030E+02  0.000E+00  0.000E+00  0.000E+00  1.01858E+03  2.955E+00  4.284E+01  4.366E-01  1.577E-01
   1   13    4     8     3    1.7030E+02 -2.3217E+00   1.7262E+02  0.000E+00  0.000E+00  0.000E+00  1.01234E+03  2.962E+00  4.294E+01  4.376E+00 -1.768E-01
   1   13    3     8     4    1.7262E+02 -3.6108E+00   1.7623E+02  0.000E+00  0.000E+00  0.000E+00  1.00611E+03  2.981E+00  4.322E+01  4.404E+00 -2.733E-01
   1   13    2     8     5    1.7623E+02 -2.5802E+00   1.7881E+02  0.000E+00  0.000E+00  0.000E+00  9.99876E+02  3.001E+00  4.351E+01  4.434E+00 -1.940E-01
   1   13    1     8     6    1.7881E+02 -1.9990E+00   1.8081E+02  0.000E+00  0.000E+00  0.000E+00  9.94890E+02  3.015E+00  4.372E+01  2.673E+00 -2.493E-01





UNSATURATED ZONE PACKAGE VOLUMETRIC BUDGET FOR  TIME STEP    30 STRESS PERIOD   23
  ------------------------------------------------------------------------------



     CUMULATIVE VOLUMES      L**3       RATES FOR THIS TIME STEP      L**3/T
     ------------------                 ------------------------

           IN:                                      IN:
           ---                                      ---
        INFILTRATION =   856911222.9747          INFILTRATION =           0.8475

          OUT:                                     OUT:
          ----                                     ----
              UZF ET =   856142891.3840                UZF ET =           0.8475
        UZF RECHARGE =       73224.0000          UZF RECHARGE =       0.0000E+00

            IN - OUT =      695107.5907              IN - OUT =       0.0000E+00

          STORAGE:                                 STORAGE:
          --------                                 --------
      STORAGE CHANGE =      695101.4853        STORAGE CHANGE =       1.0374E-17

 PERCENT DISCREPANCY IS DIFFERENCE BETWEEN IN-OUT MINUS CHANGE IN STORAGE
 DIVIDED BY THE AVERAGE OF IN AND OUT TIMES 100

 PERCENT DISCREPANCY =           0.00     PERCENT DISCREPANCY =           0.00






1
  VOLUMETRIC BUDGET FOR AGRICULTURAL FIELDS AT  END OF TIME STEP   30, STRESS PERIOD  23
  ------------------------------------------------------------------------------

     CUMULATIVE VOLUMES      L**3       RATES FOR THIS TIME STEP      L**3/T
     ------------------                 ------------------------

           IN:                                      IN:
           ---                                      ---
               AG WELLS  =   807799168.0000                 AG WELLS  =           0.0000
      DIVERSION SEGMENTS =           0.0000        DIVERSION SEGMENTS =           0.0000
       IRRIGATION PONDS  =           0.0000         IRRIGATION PONDS  =           0.0000
           GW IRRIGATION =           0.0000             GW IRRIGATION =           0.0000
           SW IRRIGATION =           0.0000             SW IRRIGATION =           0.0000
        SYSTEM LOSSES GW =           0.0000          SYSTEM LOSSES GW =           0.0000
        SYSTEM LOSSES SW =           0.0000          SYSTEM LOSSES SW =           0.0000

                TOTAL IN =   807799168.0000                  TOTAL IN =           0.0000

          OUT:                                     OUT:
          ----                                     ----
               AG WELLS  =           0.0000                 AG WELLS  =           0.0000
      DIVERSION SEGMENTS =           0.0000        DIVERSION SEGMENTS =           0.0000
       IRRIGATION PONDS  =           0.0000         IRRIGATION PONDS  =           0.0000
           GW IRRIGATION =   807799168.0000             GW IRRIGATION =           0.0000
           SW IRRIGATION =           0.0000             SW IRRIGATION =           0.0000
        SYSTEM LOSSES GW =           0.0000          SYSTEM LOSSES GW =           0.0000
        SYSTEM LOSSES SW =           0.0000          SYSTEM LOSSES SW =           0.0000

               TOTAL OUT =   807799168.0000                 TOTAL OUT =           0.0000

                IN - OUT =           0.0000                  IN - OUT =           0.0000

     PERCENT DISCREPANCY =           0.00         PERCENT DISCREPANCY =           0.00



1
  VOLUMETRIC BUDGET FOR ENTIRE MODEL AT END OF TIME STEP   30, STRESS PERIOD  23
  ------------------------------------------------------------------------------

     CUMULATIVE VOLUMES      L**3       RATES FOR THIS TIME STEP      L**3/T
     ------------------                 ------------------------

           IN:                                      IN:
           ---                                      ---
             STORAGE     =  1038650688.0000               STORAGE     =          13.4501
       CONSTANT HEAD     =           0.0000         CONSTANT HEAD     =           0.0000
     HEAD DEP BOUNDS     =    16540544.0000       HEAD DEP BOUNDS     =           0.2857
      STREAM LEAKAGE     =   723346112.0000        STREAM LEAKAGE     =          11.7003
        UZF RECHARGE     =       73223.9531          UZF RECHARGE     =           0.0000
               GW ET     =           0.0000                 GW ET     =           0.0000
     SURFACE LEAKAGE     =           0.0000       SURFACE LEAKAGE     =           0.0000
           AG WELLS      =           0.0000             AG WELLS      =           0.0000

                TOTAL IN =  1778610560.0000                  TOTAL IN =          25.4362

          OUT:                                     OUT:
          ----                                     ----
             STORAGE     =   335494592.0000               STORAGE     =          14.6342
       CONSTANT HEAD     =           0.0000         CONSTANT HEAD     =           0.0000
     HEAD DEP BOUNDS     =    17061214.0000       HEAD DEP BOUNDS     =           0.2902
      STREAM LEAKAGE     =   600656000.0000        STREAM LEAKAGE     =          10.5117
        UZF RECHARGE     =           0.0000          UZF RECHARGE     =           0.0000
               GW ET     =    17603406.0000                 GW ET     =           0.0000
     SURFACE LEAKAGE     =           0.0000       SURFACE LEAKAGE     =           0.0000
           AG WELLS      =   807799168.0000             AG WELLS      =           0.0000

               TOTAL OUT =  1778614272.0000                 TOTAL OUT =          25.4362

                IN - OUT =       -3712.0000                  IN - OUT =       9.5367E-06

     PERCENT DISCREPANCY =          -0.00         PERCENT DISCREPANCY =           0.00






         TIME SUMMARY AT END OF TIME STEP   30 IN STRESS PERIOD   23
                    SECONDS     MINUTES      HOURS       DAYS        YEARS
                    -----------------------------------------------------------
   TIME STEP LENGTH  87667.      1461.1      24.352      1.0147     2.77799E-03
 STRESS PERIOD TIME 2.63000E+06  43833.      730.56      30.440     8.33397E-02
         TOTAL TIME 5.79467E+07 9.65778E+05  16096.      670.68      1.8362    
1
1
                            STRESS PERIOD NO.   24, LENGTH =   2630000.    
                            -----------------------------------------------

                              NUMBER OF TIME STEPS =    30

                               MULTIPLIER FOR DELT =     1.000

                            INITIAL TIME STEP SIZE =   87666.66    

 REUSING NON-PARAMETER GHB CELLS FROM LAST STRESS PERIOD

      2 GHB CELLS

 REUSING STREAM SEGMENT DATA FROM LAST STRESS PERIOD



            AREAL INFILTRATION RATE
 READING ON UNIT   19 WITH FORMAT: (FREE)              

            1           2           3           4           5           6           7           8           9          10
 ........................................................................................................................
   1   1.0000E-10  2.0000E-10   0.000       0.000       0.000       0.000       0.000       0.000       0.000       0.000    
   2   2.0000E-10  1.0000E-10  2.0000E-10   0.000       0.000      8.0000E-10  8.0000E-10  5.0000E-10   0.000       0.000    
   3    0.000      5.0000E-10  1.0000E-10  1.0000E-10  8.0000E-10  8.0000E-10  5.0000E-10  5.0000E-10   0.000       0.000    
   4   8.0000E-10  5.0000E-10  1.0000E-10  1.0000E-10  1.0000E-10  1.0000E-10  1.0000E-10  1.0000E-10  2.0000E-10   0.000    
   5   8.0000E-10  5.0000E-10  1.0000E-10  1.0000E-10  1.0000E-10  1.0000E-10  1.0000E-10  1.0000E-10  1.0000E-10  1.0000E-10
   6   8.0000E-10  5.0000E-10  5.0000E-10  2.0000E-10  2.0000E-10  1.0000E-10  1.0000E-10  1.0000E-10  1.0000E-10  5.0000E-10
   7   8.0000E-10  5.0000E-10  5.0000E-10  2.0000E-10  2.0000E-10  1.0000E-10  1.0000E-10  2.0000E-10  2.0000E-10   0.000    
   8    0.000      5.0000E-10  5.0000E-10  2.0000E-10  2.0000E-10  1.0000E-10  1.0000E-10  2.0000E-10  5.0000E-10   0.000    
   9    0.000      5.0000E-10  5.0000E-10  2.0000E-10  2.0000E-10  1.0000E-10  1.0000E-10  2.0000E-10  5.0000E-10   0.000    
  10    0.000      5.0000E-10  5.0000E-10  2.0000E-10  2.0000E-10  1.0000E-10  1.0000E-10  2.0000E-10  5.0000E-10  8.0000E-10
  11    0.000      1.0000E-10  1.0000E-10  1.0000E-10  1.0000E-10  1.0000E-10  1.0000E-10  2.0000E-10  5.0000E-10   0.000    
  12   1.0000E-10  1.0000E-10  1.0000E-10  1.0000E-10  1.0000E-10  1.0000E-10  1.0000E-10  1.0000E-10  2.0000E-10   0.000    
  13   1.0000E-10  1.0000E-10  2.0000E-10  2.0000E-10  2.0000E-10  2.0000E-10  2.0000E-10  1.0000E-10  1.0000E-10   0.000    
  14    0.000      2.0000E-10  5.0000E-10  5.0000E-10  5.0000E-10  5.0000E-10  5.0000E-10  2.0000E-10  1.0000E-10   0.000    
  15    0.000       0.000      8.0000E-10  8.0000E-10  8.0000E-10  8.0000E-10   0.000       0.000       0.000       0.000    

                  ET RATE =  5.000000E-10

 USING ET EXTINCTION DEPTH FROM PREVIOUS STRESS PERIOD. CURRENT PERIOD IS:      24

 USING EXTINCTION WATER CONTENT FROM PREVIOUS STRESS PERIOD. CURRENT PERIOD IS:      24

 USING AIR ENTRY PRESSURE FROM PREVIOUS STRESS PERIOD. CURRENT PERIOD IS:      24

 USING ROOT PRESSURE HEAD FROM PREVIOUS STRESS PERIOD. CURRENT PERIOD IS:      24

 USING ROOT ACTIVITY FROM PREVIOUS STRESS PERIOD. CURRENT PERIOD IS:      24

 PROCESSING AG STRESS PERIOD DATA

 READING AG STRESS PERIOD DATA

 READING IRRIGATION WELL

 NO IRRPOND OR REUSING IRRPOND DATA FROM LAST STRESS PERIOD

 END PROCESSING AG STRESS PERIOD DATA OPTIONS
 
 SOLVING FOR HEAD 
                                                   Max.-Head-Change                         Max.-Flux-Residual
  Residual-Control   Outer-Iter.   Inner-Iter.     Column Row Layer    Maximum-Head-Change  Column Row Layer    Maximum-Flux-Residual          L2-NORM 
          0                 1           2             4    7     1       0.5105842583E-01       4    7    1         0.2690075766E+01      0.5511002324E+01
          0                 2           2             4    7     1      -0.4966645653E-02       4    7    1        -0.2690111848E+00      0.5510995183E+00
          0                 3           2             4    7     1       0.3382096374E-03       4    7    1         0.1883075693E-01      0.3857672141E-01
          0                 4           1             4    7     1      -0.1345768059E-04       4    7    1        -0.7701792083E-03      0.1577778518E-02

    ------------------------------------------------
       NWT REQUIRED            4 OUTER ITERATIONS 
       AND A TOTAL OF          7 INNER ITERATIONS.
    ------------------------------------------------

 NO OUTPUT CONTROL FOR STRESS PERIOD   24   TIME STEP    1
 
 SOLVING FOR HEAD 
                                                   Max.-Head-Change                         Max.-Flux-Residual
  Residual-Control   Outer-Iter.   Inner-Iter.     Column Row Layer    Maximum-Head-Change  Column Row Layer    Maximum-Flux-Residual          L2-NORM 
          0                 1           2             4    7     1       0.5035244178E-01       4    7    1         0.2652880898E+01      0.5438203582E+01
          0                 2           2             4    7     1      -0.4897971483E-02       4    7    1        -0.2652916180E+00      0.5438178587E+00
          0                 3           2             4    7     1       0.3335331924E-03       4    7    1         0.1857038790E-01      0.3806685544E-01
          0                 4           1             4    7     1      -0.1327160031E-04       4    7    1        -0.7595300865E-03      0.1557424672E-02

    ------------------------------------------------
       NWT REQUIRED            4 OUTER ITERATIONS 
       AND A TOTAL OF          7 INNER ITERATIONS.
    ------------------------------------------------

 NO OUTPUT CONTROL FOR STRESS PERIOD   24   TIME STEP    2
 
 SOLVING FOR HEAD 
                                                   Max.-Head-Change                         Max.-Flux-Residual
  Residual-Control   Outer-Iter.   Inner-Iter.     Column Row Layer    Maximum-Head-Change  Column Row Layer    Maximum-Flux-Residual          L2-NORM 
          0                 1           2             4    7     1       0.4965647613E-01       4    7    1         0.2616203884E+01      0.5365961613E+01
          0                 2           2             4    7     1      -0.4830271840E-02       4    7    1        -0.2616238372E+00      0.5365939203E+00
          0                 3           2             4    7     1       0.3289231088E-03       4    7    1         0.1831364389E-01      0.3756109278E-01
          0                 4           1             4    7     1      -0.1308816071E-04       4    7    1        -0.7490292267E-03      0.1536297806E-02

    ------------------------------------------------
       NWT REQUIRED            4 OUTER ITERATIONS 
       AND A TOTAL OF          7 INNER ITERATIONS.
    ------------------------------------------------

 NO OUTPUT CONTROL FOR STRESS PERIOD   24   TIME STEP    3
 
 SOLVING FOR HEAD 
                                                   Max.-Head-Change                         Max.-Flux-Residual
  Residual-Control   Outer-Iter.   Inner-Iter.     Column Row Layer    Maximum-Head-Change  Column Row Layer    Maximum-Flux-Residual          L2-NORM 
          0                 1           2             4    7     1       0.4897053726E-01       4    7    1         0.2580046292E+01      0.5295320425E+01
          0                 2           2             4    7     1      -0.4763547538E-02       4    7    1        -0.2580079995E+00      0.5295300350E+00
          0                 3           2             4    7     1       0.3243794424E-03       4    7    1         0.1806053586E-01      0.3706673455E-01
          0                 4           1             4    7     1      -0.1290736386E-04       4    7    1        -0.7386770969E-03      0.1515993164E-02

    ------------------------------------------------
       NWT REQUIRED            4 OUTER ITERATIONS 
       AND A TOTAL OF          7 INNER ITERATIONS.
    ------------------------------------------------

 NO OUTPUT CONTROL FOR STRESS PERIOD   24   TIME STEP    4
 
 SOLVING FOR HEAD 
                                                   Max.-Head-Change                         Max.-Flux-Residual
  Residual-Control   Outer-Iter.   Inner-Iter.     Column Row Layer    Maximum-Head-Change  Column Row Layer    Maximum-Flux-Residual          L2-NORM 
          0                 1           2             4    7     1       0.4829448887E-01       4    7    1         0.2544401265E+01      0.5226239613E+01
          0                 2           2             4    7     1      -0.4697785324E-02       4    7    1        -0.2544434190E+00      0.5226221258E+00
          0                 3           2             4    7     1       0.3199012905E-03       4    7    1         0.1781101587E-01      0.3658321472E-01
          0                 4           1             4    7     1      -0.1272917374E-04       4    7    1        -0.7284716946E-03      0.1496236046E-02

    ------------------------------------------------
       NWT REQUIRED            4 OUTER ITERATIONS 
       AND A TOTAL OF          7 INNER ITERATIONS.
    ------------------------------------------------

 NO OUTPUT CONTROL FOR STRESS PERIOD   24   TIME STEP    5
 
 SOLVING FOR HEAD 
                                                   Max.-Head-Change                         Max.-Flux-Residual
  Residual-Control   Outer-Iter.   Inner-Iter.     Column Row Layer    Maximum-Head-Change  Column Row Layer    Maximum-Flux-Residual          L2-NORM 
          0                 1           2             4    7     1       0.4762858641E-01       4    7    1         0.2509283613E+01      0.5158664315E+01
          0                 2           2             4    7     1      -0.4633010046E-02       4    7    1        -0.2509315770E+00      0.5158647889E+00
          0                 3           2             4    7     1       0.3154903456E-03       4    7    1         0.1756518755E-01      0.3611021924E-01
          0                 4           1             4    7     1      -0.1255365849E-04       4    7    1        -0.7184173260E-03      0.1476901407E-02

    ------------------------------------------------
       NWT REQUIRED            4 OUTER ITERATIONS 
       AND A TOTAL OF          7 INNER ITERATIONS.
    ------------------------------------------------

 NO OUTPUT CONTROL FOR STRESS PERIOD   24   TIME STEP    6
 
 SOLVING FOR HEAD 
                                                   Max.-Head-Change                         Max.-Flux-Residual
  Residual-Control   Outer-Iter.   Inner-Iter.     Column Row Layer    Maximum-Head-Change  Column Row Layer    Maximum-Flux-Residual          L2-NORM 
          0                 1           2             4    7     1       0.4697252332E-01       4    7    1         0.2474677411E+01      0.5092540872E+01
          0                 2           2             4    7     1      -0.4569191884E-02       4    7    1        -0.2474708810E+00      0.5092526181E+00
          0                 3           2             4    7     1       0.3111445757E-03       4    7    1         0.1732293943E-01      0.3564740723E-01
          0                 4           1             4    7     1      -0.1238073591E-04       4    7    1        -0.7085093457E-03      0.1457972095E-02

    ------------------------------------------------
       NWT REQUIRED            4 OUTER ITERATIONS 
       AND A TOTAL OF          7 INNER ITERATIONS.
    ------------------------------------------------

 NO OUTPUT CONTROL FOR STRESS PERIOD   24   TIME STEP    7
 
 SOLVING FOR HEAD 
                                                   Max.-Head-Change                         Max.-Flux-Residual
  Residual-Control   Outer-Iter.   Inner-Iter.     Column Row Layer    Maximum-Head-Change  Column Row Layer    Maximum-Flux-Residual          L2-NORM 
          0                 1           2             4    7     1       0.4632652829E-01       4    7    1         0.2440595938E+01      0.5027826476E+01
          0                 2           2             4    7     1      -0.4506353090E-02       4    7    1        -0.2440626590E+00      0.5027802542E+00
          0                 3           2             4    7     1       0.3068655009E-03       4    7    1         0.1708436451E-01      0.3519613607E-01
          0                 4           1             4    7     1      -0.1221046737E-04       4    7    1        -0.6987516208E-03      0.1439506002E-02

    ------------------------------------------------
       NWT REQUIRED            4 OUTER ITERATIONS 
       AND A TOTAL OF          7 INNER ITERATIONS.
    ------------------------------------------------

 NO OUTPUT CONTROL FOR STRESS PERIOD   24   TIME STEP    8
 
 SOLVING FOR HEAD 
                                                   Max.-Head-Change                         Max.-Flux-Residual
  Residual-Control   Outer-Iter.   Inner-Iter.     Column Row Layer    Maximum-Head-Change  Column Row Layer    Maximum-Flux-Residual          L2-NORM 
          0                 1           2             4    7     1       0.4569040777E-01       4    7    1         0.2407029170E+01      0.4964482768E+01
          0                 2           2             4    7     1      -0.4444474781E-02       4    7    1        -0.2407059087E+00      0.4964187451E+00
          0                 3           2             4    7     1       0.3026518249E-03       4    7    1         0.1684939258E-01      0.3474904581E-01
          0                 4           1             4    7     1      -0.1204280141E-04       4    7    1        -0.6891412470E-03      0.1421219750E-02

    ------------------------------------------------
       NWT REQUIRED            4 OUTER ITERATIONS 
       AND A TOTAL OF          7 INNER ITERATIONS.
    ------------------------------------------------

 NO OUTPUT CONTROL FOR STRESS PERIOD   24   TIME STEP    9
 
 SOLVING FOR HEAD 
                                                   Max.-Head-Change                         Max.-Flux-Residual
  Residual-Control   Outer-Iter.   Inner-Iter.     Column Row Layer    Maximum-Head-Change  Column Row Layer    Maximum-Flux-Residual          L2-NORM 
          0                 1           2             4    7     1       0.4506409226E-01       4    7    1         0.2373974369E+01      0.4902476503E+01
          0                 2           2             4    7     1      -0.4383550134E-02       4    7    1        -0.2374003563E+00      0.4902317504E+00
          0                 3           2             4    7     1       0.2985030928E-03       4    7    1         0.1661800450E-01      0.3431597438E-01
          0                 4           1             4    7     1      -0.1187771937E-04       4    7    1        -0.6796774617E-03      0.1403508900E-02

    ------------------------------------------------
       NWT REQUIRED            4 OUTER ITERATIONS 
       AND A TOTAL OF          7 INNER ITERATIONS.
    ------------------------------------------------

 NO OUTPUT CONTROL FOR STRESS PERIOD   24   TIME STEP   10
 
 SOLVING FOR HEAD 
                                                   Max.-Head-Change                         Max.-Flux-Residual
  Residual-Control   Outer-Iter.   Inner-Iter.     Column Row Layer    Maximum-Head-Change  Column Row Layer    Maximum-Flux-Residual          L2-NORM 
          0                 1           2             4    7     1       0.4444765048E-01       4    7    1         0.2341435230E+01      0.4841773810E+01
          0                 2           2             4    7     1      -0.4323586327E-02       4    7    1        -0.2341463714E+00      0.4841763766E+00
          0                 3           2             4    7     1       0.2944197900E-03       4    7    1         0.1639022612E-01      0.3389201048E-01
          0                 4           1             4    7     1      -0.1171524093E-04       4    7    1        -0.6703613060E-03      0.1386828342E-02

    ------------------------------------------------
       NWT REQUIRED            4 OUTER ITERATIONS 
       AND A TOTAL OF          7 INNER ITERATIONS.
    ------------------------------------------------

 NO OUTPUT CONTROL FOR STRESS PERIOD   24   TIME STEP   11
 
 SOLVING FOR HEAD 
                                                   Max.-Head-Change                         Max.-Flux-Residual
  Residual-Control   Outer-Iter.   Inner-Iter.     Column Row Layer    Maximum-Head-Change  Column Row Layer    Maximum-Flux-Residual          L2-NORM 
          0                 1           2             4    7     1       0.4384099153E-01       4    7    1         0.2309407998E+01      0.4782364034E+01
          0                 2           2             4    7     1      -0.4264573930E-02       4    7    1        -0.2309435785E+00      0.4782354868E+00
          0                 3           2             4    7     1       0.2904012748E-03       4    7    1         0.1616603119E-01      0.3347623903E-01
          0                 4           1             4    7     1      -0.1155534056E-04       4    7    1        -0.6611917286E-03      0.1369170487E-02

    ------------------------------------------------
       NWT REQUIRED            4 OUTER ITERATIONS 
       AND A TOTAL OF          7 INNER ITERATIONS.
    ------------------------------------------------

 NO OUTPUT CONTROL FOR STRESS PERIOD   24   TIME STEP   12
 
 SOLVING FOR HEAD 
                                                   Max.-Head-Change                         Max.-Flux-Residual
  Residual-Control   Outer-Iter.   Inner-Iter.     Column Row Layer    Maximum-Head-Change  Column Row Layer    Maximum-Flux-Residual          L2-NORM 
          0                 1           2             4    7     1       0.4324402185E-01       4    7    1         0.2277887990E+01      0.4724158750E+01
          0                 2           2             4    7     1      -0.4206504054E-02       4    7    1        -0.2277915092E+00      0.4724150037E+00
          0                 3           2             4    7     1       0.2864469411E-03       4    7    1         0.1594538689E-01      0.3306883379E-01
          0                 4           1             4    7     1      -0.1139799371E-04       4    7    1        -0.6521673486E-03      0.1352519106E-02

    ------------------------------------------------
       NWT REQUIRED            4 OUTER ITERATIONS 
       AND A TOTAL OF          7 INNER ITERATIONS.
    ------------------------------------------------

 NO OUTPUT CONTROL FOR STRESS PERIOD   24   TIME STEP   13
 
 SOLVING FOR HEAD 
                                                   Max.-Head-Change                         Max.-Flux-Residual
  Residual-Control   Outer-Iter.   Inner-Iter.     Column Row Layer    Maximum-Head-Change  Column Row Layer    Maximum-Flux-Residual          L2-NORM 
          0                 1           2             4    7     1       0.4265677300E-01       4    7    1         0.2246877643E+01      0.4667122774E+01
          0                 2           2             4    7     1      -0.4149379770E-02       4    7    1        -0.2246904075E+00      0.4667114647E+00
          0                 3           2             4    7     1       0.2825569988E-03       4    7    1         0.1572831031E-01      0.3266958137E-01
          0                 4           1             4    7     1      -0.1124320925E-04       4    7    1        -0.6432889054E-03      0.1336171927E-02

    ------------------------------------------------
       NWT REQUIRED            4 OUTER ITERATIONS 
       AND A TOTAL OF          7 INNER ITERATIONS.
    ------------------------------------------------

 NO OUTPUT CONTROL FOR STRESS PERIOD   24   TIME STEP   14
 
 SOLVING FOR HEAD 
                                                   Max.-Head-Change                         Max.-Flux-Residual
  Residual-Control   Outer-Iter.   Inner-Iter.     Column Row Layer    Maximum-Head-Change  Column Row Layer    Maximum-Flux-Residual          L2-NORM 
          0                 1           2             4    7     1       0.4207886589E-01       4    7    1         0.2216356697E+01      0.4611230927E+01
          0                 2           2             4    7     1      -0.4093164202E-02       4    7    1        -0.2216382472E+00      0.4611223289E+00
          0                 3           2             4    7     1       0.2787289363E-03       4    7    1         0.1551465961E-01      0.3227836198E-01
          0                 4           1             4    7     1      -0.1109088703E-04       4    7    1        -0.6345505781E-03      0.1320177243E-02

    ------------------------------------------------
       NWT REQUIRED            4 OUTER ITERATIONS 
       AND A TOTAL OF          7 INNER ITERATIONS.
    ------------------------------------------------

 NO OUTPUT CONTROL FOR STRESS PERIOD   24   TIME STEP   15
 
 SOLVING FOR HEAD 
                                                   Max.-Head-Change                         Max.-Flux-Residual
  Residual-Control   Outer-Iter.   Inner-Iter.     Column Row Layer    Maximum-Head-Change  Column Row Layer    Maximum-Flux-Residual          L2-NORM 
          0                 1           2             4    7     1       0.4151046274E-01       4    7    1         0.2186334694E+01      0.4556436725E+01
          0                 2           2             4    7     1      -0.4037873130E-02       4    7    1        -0.2186359826E+00      0.4556429382E+00
          0                 3           2             4    7     1       0.2749638285E-03       4    7    1         0.1530450161E-01      0.3189479536E-01
          0                 4           1             4    7     1      -0.1094106953E-04       4    7    1        -0.6259550869E-03      0.1304477641E-02

    ------------------------------------------------
       NWT REQUIRED            4 OUTER ITERATIONS 
       AND A TOTAL OF          7 INNER ITERATIONS.
    ------------------------------------------------

 NO OUTPUT CONTROL FOR STRESS PERIOD   24   TIME STEP   16
 
 SOLVING FOR HEAD 
                                                   Max.-Head-Change                         Max.-Flux-Residual
  Residual-Control   Outer-Iter.   Inner-Iter.     Column Row Layer    Maximum-Head-Change  Column Row Layer    Maximum-Flux-Residual          L2-NORM 
          0                 1           2             4    7     1       0.4095130840E-01       4    7    1         0.2156798146E+01      0.4502722442E+01
          0                 2           2             4    7     1      -0.3983481735E-02       4    7    1        -0.2156822649E+00      0.4502715470E+00
          0                 3           2             4    7     1       0.2712599850E-03       4    7    1         0.1509774186E-01      0.3151881210E-01
          0                 4           1             4    7     1      -0.1079369020E-04       4    7    1        -0.6174985967E-03      0.1289107678E-02

    ------------------------------------------------
       NWT REQUIRED            4 OUTER ITERATIONS 
       AND A TOTAL OF          7 INNER ITERATIONS.
    ------------------------------------------------

 NO OUTPUT CONTROL FOR STRESS PERIOD   24   TIME STEP   17
 
 SOLVING FOR HEAD 
                                                   Max.-Head-Change                         Max.-Flux-Residual
  Residual-Control   Outer-Iter.   Inner-Iter.     Column Row Layer    Maximum-Head-Change  Column Row Layer    Maximum-Flux-Residual          L2-NORM 
          0                 1           2             4    7     1       0.4040142248E-01       4    7    1         0.2127748426E+01      0.4450053005E+01
          0                 2           2             4    7     1      -0.3929991926E-02       4    7    1        -0.2127772313E+00      0.4450046396E+00
          0                 3           2             4    7     1       0.2676175364E-03       4    7    1         0.1489439002E-01      0.3115013583E-01
          0                 4           1             4    7     1      -0.1064875365E-04       4    7    1        -0.6091814921E-03      0.1274046197E-02

    ------------------------------------------------
       NWT REQUIRED            4 OUTER ITERATIONS 
       AND A TOTAL OF          7 INNER ITERATIONS.
    ------------------------------------------------

 NO OUTPUT CONTROL FOR STRESS PERIOD   24   TIME STEP   18
 
 SOLVING FOR HEAD 
                                                   Max.-Head-Change                         Max.-Flux-Residual
  Residual-Control   Outer-Iter.   Inner-Iter.     Column Row Layer    Maximum-Head-Change  Column Row Layer    Maximum-Flux-Residual          L2-NORM 
          0                 1           2             4    7     1       0.3986066873E-01       4    7    1         0.2099179250E+01      0.4398391049E+01
          0                 2           2             4    7     1      -0.3877390448E-02       4    7    1        -0.2099202536E+00      0.4398384401E+00
          0                 3           2             4    7     1       0.2640355794E-03       4    7    1         0.1469440206E-01      0.3078849061E-01
          0                 4           1             4    7     1      -0.1050622452E-04       4    7    1        -0.6010019904E-03      0.1259239604E-02

    ------------------------------------------------
       NWT REQUIRED            4 OUTER ITERATIONS 
       AND A TOTAL OF          7 INNER ITERATIONS.
    ------------------------------------------------

 NO OUTPUT CONTROL FOR STRESS PERIOD   24   TIME STEP   19
 
 SOLVING FOR HEAD 
                                                   Max.-Head-Change                         Max.-Flux-Residual
  Residual-Control   Outer-Iter.   Inner-Iter.     Column Row Layer    Maximum-Head-Change  Column Row Layer    Maximum-Flux-Residual          L2-NORM 
          0                 1           2             4    7     1       0.3932878870E-01       4    7    1         0.2071076252E+01      0.4347722924E+01
          0                 2           2             4    7     1      -0.3825652160E-02       4    7    1        -0.2071098949E+00      0.4347716565E+00
          0                 3           2             4    7     1       0.2605124022E-03       4    7    1         0.1449767743E-01      0.3043381723E-01
          0                 4           1             4    7     1      -0.1036603365E-04       4    7    1        -0.5929559272E-03      0.1244725758E-02

    ------------------------------------------------
       NWT REQUIRED            4 OUTER ITERATIONS 
       AND A TOTAL OF          7 INNER ITERATIONS.
    ------------------------------------------------

 NO OUTPUT CONTROL FOR STRESS PERIOD   24   TIME STEP   20
 
 SOLVING FOR HEAD 
                                                   Max.-Head-Change                         Max.-Flux-Residual
  Residual-Control   Outer-Iter.   Inner-Iter.     Column Row Layer    Maximum-Head-Change  Column Row Layer    Maximum-Flux-Residual          L2-NORM 
          0                 1           2             4    7     1       0.3880591811E-01       4    7    1         0.2043447939E+01      0.4298009576E+01
          0                 2           2             4    7     1      -0.3774790267E-02       4    7    1        -0.2043470062E+00      0.4298003468E+00
          0                 3           2             4    7     1       0.2570489043E-03       4    7    1         0.1430427568E-01      0.3008585328E-01
          0                 4           1             4    7     1      -0.1022821831E-04       4    7    1        -0.5850457953E-03      0.1230508353E-02

    ------------------------------------------------
       NWT REQUIRED            4 OUTER ITERATIONS 
       AND A TOTAL OF          7 INNER ITERATIONS.
    ------------------------------------------------

 NO OUTPUT CONTROL FOR STRESS PERIOD   24   TIME STEP   21
 
 SOLVING FOR HEAD 
                                                   Max.-Head-Change                         Max.-Flux-Residual
  Residual-Control   Outer-Iter.   Inner-Iter.     Column Row Layer    Maximum-Head-Change  Column Row Layer    Maximum-Flux-Residual          L2-NORM 
          0                 1           2             4    7     1       0.3829178367E-01       4    7    1         0.2016279440E+01      0.4249238825E+01
          0                 2           2             4    7     1      -0.3724778181E-02       4    7    1        -0.2016301003E+00      0.4249232552E+00
          0                 3           2             4    7     1       0.2536432744E-03       4    7    1         0.1411409271E-01      0.2974444485E-01
          0                 4           1             4    7     1      -0.1009270449E-04       4    7    1        -0.5772672841E-03      0.1216537318E-02

    ------------------------------------------------
       NWT REQUIRED            4 OUTER ITERATIONS 
       AND A TOTAL OF          7 INNER ITERATIONS.
    ------------------------------------------------

 NO OUTPUT CONTROL FOR STRESS PERIOD   24   TIME STEP   22
 
 SOLVING FOR HEAD 
                                                   Max.-Head-Change                         Max.-Flux-Residual
  Residual-Control   Outer-Iter.   Inner-Iter.     Column Row Layer    Maximum-Head-Change  Column Row Layer    Maximum-Flux-Residual          L2-NORM 
          0                 1           2             4    7     1       0.3778624699E-01       4    7    1         0.1989563889E+01      0.4201369269E+01
          0                 2           2             4    7     1      -0.3675602432E-02       4    7    1        -0.1989584905E+00      0.4201267857E+00
          0                 3           2             4    7     1       0.2502945966E-03       4    7    1         0.1392708047E-01      0.2940870666E-01
          0                 4           1             4    7     1      -0.9959457762E-05       4    7    1        -0.5696184835E-03      0.1202809456E-02

    ------------------------------------------------
       NWT REQUIRED            4 OUTER ITERATIONS 
       AND A TOTAL OF          7 INNER ITERATIONS.
    ------------------------------------------------

 NO OUTPUT CONTROL FOR STRESS PERIOD   24   TIME STEP   23
 
 SOLVING FOR HEAD 
                                                   Max.-Head-Change                         Max.-Flux-Residual
  Residual-Control   Outer-Iter.   Inner-Iter.     Column Row Layer    Maximum-Head-Change  Column Row Layer    Maximum-Flux-Residual          L2-NORM 
          0                 1           2             4    7     1       0.3728930597E-01       4    7    1         0.1963301417E+01      0.4154397703E+01
          0                 2           2             4    7     1      -0.3627262848E-02       4    7    1        -0.1963321899E+00      0.4154392149E+00
          0                 3           2             4    7     1       0.2470028575E-03       4    7    1         0.1374323984E-01      0.2908057138E-01
          0                 4           1             4    7     1      -0.9828476285E-05       4    7    1        -0.5620993909E-03      0.1189391039E-02

    ------------------------------------------------
       NWT REQUIRED            4 OUTER ITERATIONS 
       AND A TOTAL OF          7 INNER ITERATIONS.
    ------------------------------------------------

 NO OUTPUT CONTROL FOR STRESS PERIOD   24   TIME STEP   24
 
 SOLVING FOR HEAD 
                                                   Max.-Head-Change                         Max.-Flux-Residual
  Residual-Control   Outer-Iter.   Inner-Iter.     Column Row Layer    Maximum-Head-Change  Column Row Layer    Maximum-Flux-Residual          L2-NORM 
          0                 1           2             4    7     1       0.3680081593E-01       4    7    1         0.1937484608E+01      0.4108301684E+01
          0                 2           2             4    7     1      -0.3579745324E-02       4    7    1        -0.1937504570E+00      0.4108295741E+00
          0                 3           2             4    7     1       0.2437670980E-03       4    7    1         0.1356251898E-01      0.2875790502E-01
          0                 4           1             4    7     1      -0.9699722182E-05       4    7    1        -0.5547078867E-03      0.1176189496E-02

    ------------------------------------------------
       NWT REQUIRED            4 OUTER ITERATIONS 
       AND A TOTAL OF          7 INNER ITERATIONS.
    ------------------------------------------------

 NO OUTPUT CONTROL FOR STRESS PERIOD   24   TIME STEP   25
 
 SOLVING FOR HEAD 
                                                   Max.-Head-Change                         Max.-Flux-Residual
  Residual-Control   Outer-Iter.   Inner-Iter.     Column Row Layer    Maximum-Head-Change  Column Row Layer    Maximum-Flux-Residual          L2-NORM 
          0                 1           2             4    7     1       0.3632050196E-01       4    7    1         0.1912098658E+01      0.4063049321E+01
          0                 2           2             4    7     1      -0.3533023125E-02       4    7    1        -0.1912118112E+00      0.4063043376E+00
          0                 3           2             4    7     1       0.2405854963E-03       4    7    1         0.1338481416E-01      0.2844113516E-01
          0                 4           1             4    7     1      -0.9573123037E-05       4    7    1        -0.5474397301E-03      0.1163242381E-02

    ------------------------------------------------
       NWT REQUIRED            4 OUTER ITERATIONS 
       AND A TOTAL OF          7 INNER ITERATIONS.
    ------------------------------------------------

 NO OUTPUT CONTROL FOR STRESS PERIOD   24   TIME STEP   26
 
 SOLVING FOR HEAD 
                                                   Max.-Head-Change                         Max.-Flux-Residual
  Residual-Control   Outer-Iter.   Inner-Iter.     Column Row Layer    Maximum-Head-Change  Column Row Layer    Maximum-Flux-Residual          L2-NORM 
          0                 1           2             4    7     1       0.3584835599E-01       4    7    1         0.1887143924E+01      0.4018609024E+01
          0                 2           2             4    7     1      -0.3487095470E-02       4    7    1        -0.1887162883E+00      0.4018603053E+00
          0                 3           2             4    7     1       0.2374580007E-03       4    7    1         0.1321012796E-01      0.2813006316E-01
          0                 4           1             4    7     1      -0.9448677469E-05       4    7    1        -0.5402950644E-03      0.1150511073E-02

    ------------------------------------------------
       NWT REQUIRED            4 OUTER ITERATIONS 
       AND A TOTAL OF          7 INNER ITERATIONS.
    ------------------------------------------------

 NO OUTPUT CONTROL FOR STRESS PERIOD   24   TIME STEP   27
 
 SOLVING FOR HEAD 
                                                   Max.-Head-Change                         Max.-Flux-Residual
  Residual-Control   Outer-Iter.   Inner-Iter.     Column Row Layer    Maximum-Head-Change  Column Row Layer    Maximum-Flux-Residual          L2-NORM 
          0                 1           2             4    7     1       0.3538423728E-01       4    7    1         0.1862612681E+01      0.3974970580E+01
          0                 2           2             4    7     1      -0.3441948666E-02       4    7    1        -0.1862631158E+00      0.3974964673E+00
          0                 3           2             4    7     1       0.2343836776E-03       4    7    1         0.1303840626E-01      0.2782459327E-01
          0                 4           1             4    7     1      -0.9326347026E-05       4    7    1        -0.5332716421E-03      0.1138008633E-02

    ------------------------------------------------
       NWT REQUIRED            4 OUTER ITERATIONS 
       AND A TOTAL OF          7 INNER ITERATIONS.
    ------------------------------------------------

 NO OUTPUT CONTROL FOR STRESS PERIOD   24   TIME STEP   28
 
 SOLVING FOR HEAD 
                                                   Max.-Head-Change                         Max.-Flux-Residual
  Residual-Control   Outer-Iter.   Inner-Iter.     Column Row Layer    Maximum-Head-Change  Column Row Layer    Maximum-Flux-Residual          L2-NORM 
          0                 1           2             4    7     1       0.3492800244E-01       4    7    1         0.1838497634E+01      0.3932114952E+01
          0                 2           2             4    7     1      -0.3397568765E-02       4    7    1        -0.1838515640E+00      0.3932108950E+00
          0                 3           2             4    7     1       0.2313615775E-03       4    7    1         0.1286959801E-01      0.2752461190E-01
          0                 4           1             4    7     1      -0.9206094981E-05       4    7    1        -0.5263673700E-03      0.1125749607E-02

    ------------------------------------------------
       NWT REQUIRED            4 OUTER ITERATIONS 
       AND A TOTAL OF          7 INNER ITERATIONS.
    ------------------------------------------------

 NO OUTPUT CONTROL FOR STRESS PERIOD   24   TIME STEP   29
 
 SOLVING FOR HEAD 
                                                   Max.-Head-Change                         Max.-Flux-Residual
  Residual-Control   Outer-Iter.   Inner-Iter.     Column Row Layer    Maximum-Head-Change  Column Row Layer    Maximum-Flux-Residual          L2-NORM 
          0                 1           2             4    7     1       0.3447950744E-01       4    7    1         0.1814791347E+01      0.3890007768E+01
          0                 2           2             4    7     1      -0.3353941759E-02       4    7    1        -0.1814808895E+00      0.3890001581E+00
          0                 3           2             4    7     1       0.2283907468E-03       4    7    1         0.1270365115E-01      0.2722983697E-01
          0                 4           1             4    7     1      -0.9087882882E-05       4    7    1        -0.5195801368E-03      0.1113671904E-02

    ------------------------------------------------
       NWT REQUIRED            4 OUTER ITERATIONS 
       AND A TOTAL OF          7 INNER ITERATIONS.
    ------------------------------------------------

 NO OUTPUT CONTROL FOR STRESS PERIOD   24   TIME STEP   30



 STREAM LISTING     PERIOD     24   STEP       30

 LAYER ROW COL. STREAM  RCH.  FLOW INTO     FLOW TO   FLOW OUT OF   OVRLND.     DIRECT     STREAM       STREAM     STREAM     STREAM   STREAMBED  STREAMBED
                SEG.NO.  NO.  STRM. RCH.    AQUIFER    STRM. RCH.    RUNOFF     PRECIP       ET          HEAD       DEPTH      WIDTH   CONDCTNC.   GRADIENT

   1    1    1     1     1    2.1000E+01  2.2592E-01   2.0774E+01  0.000E+00  0.000E+00  0.000E+00  1.09416E+03  1.115E+00  1.220E+01  5.490E-02  1.372E+00
   1    2    2     1     2    2.0774E+01  3.4917E-01   2.0425E+01  0.000E+00  0.000E+00  0.000E+00  1.08917E+03  1.110E+00  1.214E+01  8.495E-02  1.370E+00
   1    3    3     1     3    2.0425E+01  2.9709E-01   2.0128E+01  0.000E+00  0.000E+00  0.000E+00  1.08352E+03  1.105E+00  1.206E+01  7.238E-02  1.368E+00
   1    3    4     1     4    2.0128E+01  2.7299E-01   1.9855E+01  0.000E+00  0.000E+00  0.000E+00  1.07851E+03  1.100E+00  1.200E+01  6.659E-02  1.367E+00
   1    4    5     2     1    1.7855E+01  3.1056E-01   1.7545E+01  0.000E+00  0.000E+00  0.000E+00  1.07292E+03  9.816E-01  1.200E+01  7.800E-02  1.327E+00
   1    5    6     2     2    1.7545E+01  2.3835E-01   1.7306E+01  0.000E+00  0.000E+00  0.000E+00  1.06748E+03  9.724E-01  1.200E+01  6.000E-02  1.324E+00
   1    6    6     2     3    1.7306E+01  2.3787E-01   1.7068E+01  0.000E+00  0.000E+00  0.000E+00  1.06276E+03  9.644E-01  1.200E+01  6.000E-02  1.321E+00
   1    7    6     2     4    1.7068E+01  2.3738E-01   1.6831E+01  0.000E+00  0.000E+00  0.000E+00  1.05803E+03  9.564E-01  1.200E+01  6.000E-02  1.319E+00
   1    8    6     2     5    1.6831E+01  2.3690E-01   1.6594E+01  0.000E+00  0.000E+00  0.000E+00  1.05331E+03  9.484E-01  1.200E+01  6.000E-02  1.316E+00
   1    3    5     3     1    2.0000E+00  2.8252E-01   1.7175E+00  0.000E+00  0.000E+00  0.000E+00  1.07555E+03  1.909E+00  9.636E+00  7.227E-02  1.955E+00
   1    3    6     3     2    1.7175E+00  2.4905E-01   1.4684E+00  0.000E+00  0.000E+00  0.000E+00  1.07264E+03  1.727E+00  8.909E+00  6.682E-02  1.864E+00
   1    3    7     3     3    1.4684E+00  1.9718E-01   1.2712E+00  0.000E+00  0.000E+00  0.000E+00  1.06987E+03  1.555E+00  8.218E+00  5.547E-02  1.777E+00
   1    4    8     3     4    1.2712E+00  2.2567E-01   1.0456E+00  0.000E+00  0.000E+00  0.000E+00  1.06682E+03  1.364E+00  7.455E+00  6.709E-02  1.682E+00
   1    5    8     3     5    1.0456E+00  1.5790E-01   8.8768E-01  0.000E+00  0.000E+00  0.000E+00  1.06362E+03  1.164E+00  6.655E+00  4.991E-02  1.582E+00
   1    6    8     3     6    8.8768E-01  5.5980E-02   8.3170E-01  0.000E+00  0.000E+00  0.000E+00  1.06158E+03  1.036E+00  6.145E+00  1.844E-02  1.518E+00
   1    5   10     4     1    1.0000E+01  9.0919E-02   9.9091E+00  0.000E+00  0.000E+00  0.000E+00  1.07836E+03  6.368E-01  1.000E+01  2.500E-02  1.212E+00
   1    5    9     4     2    9.9091E+00  1.8158E-01   9.7275E+00  0.000E+00  0.000E+00  0.000E+00  1.07154E+03  6.315E-01  1.000E+01  5.000E-02  1.211E+00
   1    6    8     4     3    9.7275E+00  1.2689E-01   9.6006E+00  0.000E+00  0.000E+00  0.000E+00  1.06381E+03  6.256E-01  1.000E+01  3.500E-02  1.209E+00
   1    6    8     5     1    1.0432E+01  2.2686E-01   1.0205E+01  0.000E+00  0.000E+00  0.000E+00  1.05868E+03  6.790E-01  1.542E+01  6.166E-02  1.226E+00
   1    7    7     5     2    1.0205E+01  2.7894E-01   9.9265E+00  0.000E+00  0.000E+00  0.000E+00  1.05417E+03  6.732E-01  1.519E+01  7.594E-02  1.224E+00
   1    8    7     5     3    9.9265E+00  1.9221E-01   9.7343E+00  0.000E+00  0.000E+00  0.000E+00  1.04992E+03  6.676E-01  1.497E+01  5.241E-02  1.223E+00
   1    8    6     5     4    9.7343E+00  1.3577E-01   9.5985E+00  0.000E+00  0.000E+00  0.000E+00  1.04691E+03  6.637E-01  1.482E+01  3.706E-02  1.221E+00
   1    9    6     6     1    2.6193E+01  2.5512E-01   2.5938E+01  0.000E+00  0.000E+00  0.000E+00  1.04398E+03  1.252E+00  1.200E+01  6.000E-02  1.417E+00
   1   10    7     6     2    2.5938E+01  2.5468E-01   2.5683E+01  0.000E+00  0.000E+00  0.000E+00  1.03943E+03  1.245E+00  1.200E+01  6.000E-02  1.415E+00
   1   11    7     6     3    2.5683E+01  2.5424E-01   2.5429E+01  0.000E+00  0.000E+00  0.000E+00  1.03487E+03  1.237E+00  1.200E+01  6.000E-02  1.412E+00
   1   12    7     6     4    2.5429E+01  2.5379E-01   2.5175E+01  0.000E+00  0.000E+00  0.000E+00  1.03032E+03  1.230E+00  1.200E+01  6.000E-02  1.410E+00
   1   13    7     6     5    2.5175E+01  3.4556E-03   2.5171E+01  0.000E+00  0.000E+00  0.000E+00  1.02714E+03  1.226E+00  1.200E+01  2.400E-02  4.799E-02
   1   14    9     7     1    1.5000E+02  1.3363E+00   1.4866E+02  0.000E+00  0.000E+00  0.000E+00  1.03987E+03  2.288E+00  5.529E+01  5.593E-01  7.964E-01
   1   13    8     7     2    1.4866E+02  1.8502E+00   1.4681E+02  0.000E+00  0.000E+00  0.000E+00  1.03478E+03  2.279E+00  5.526E+01  6.148E-01  1.003E+00
   1   13    7     7     3    1.4681E+02  1.5069E+00   1.4531E+02  0.000E+00  0.000E+00  0.000E+00  1.02969E+03  2.270E+00  5.522E+01  5.584E-01  8.995E-01
   1   13    6     8     1    1.7048E+02  9.6490E-01   1.6951E+02  0.000E+00  0.000E+00  0.000E+00  1.02483E+03  2.952E+00  4.281E+01  4.362E-01  7.373E-01
   1   13    5     8     2    1.6951E+02  2.2250E-01   1.6929E+02  0.000E+00  0.000E+00  0.000E+00  1.01857E+03  2.948E+00  4.275E+01  4.356E-01  1.702E-01
   1   13    4     8     3    1.6929E+02 -2.2625E+00   1.7155E+02  0.000E+00  0.000E+00  0.000E+00  1.01233E+03  2.955E+00  4.285E+01  4.366E+00 -1.727E-01
   1   13    3     8     4    1.7155E+02 -3.5817E+00   1.7513E+02  0.000E+00  0.000E+00  0.000E+00  1.00610E+03  2.974E+00  4.312E+01  4.394E+00 -2.717E-01
   1   13    2     8     5    1.7513E+02 -2.5691E+00   1.7770E+02  0.000E+00  0.000E+00  0.000E+00  9.99869E+02  2.994E+00  4.341E+01  4.423E+00 -1.936E-01
   1   13    1     8     6    1.7770E+02 -1.9876E+00   1.7969E+02  0.000E+00  0.000E+00  0.000E+00  9.94883E+02  3.008E+00  4.362E+01  2.667E+00 -2.484E-01





UNSATURATED ZONE PACKAGE VOLUMETRIC BUDGET FOR  TIME STEP    30 STRESS PERIOD   24
  ------------------------------------------------------------------------------



     CUMULATIVE VOLUMES      L**3       RATES FOR THIS TIME STEP      L**3/T
     ------------------                 ------------------------

           IN:                                      IN:
           ---                                      ---
        INFILTRATION =   859140147.8475          INFILTRATION =           0.8475

          OUT:                                     OUT:
          ----                                     ----
              UZF ET =   858115391.5520                UZF ET =           0.7500
        UZF RECHARGE =       73224.0000          UZF RECHARGE =       0.0000E+00

            IN - OUT =      951532.2954              IN - OUT =       9.7500E-02

          STORAGE:                                 STORAGE:
          --------                                 --------
      STORAGE CHANGE =      951526.2119        STORAGE CHANGE =       9.7500E-02

 PERCENT DISCREPANCY IS DIFFERENCE BETWEEN IN-OUT MINUS CHANGE IN STORAGE
 DIVIDED BY THE AVERAGE OF IN AND OUT TIMES 100

 PERCENT DISCREPANCY =           0.00     PERCENT DISCREPANCY =           0.00






1
  VOLUMETRIC BUDGET FOR AGRICULTURAL FIELDS AT  END OF TIME STEP   30, STRESS PERIOD  24
  ------------------------------------------------------------------------------

     CUMULATIVE VOLUMES      L**3       RATES FOR THIS TIME STEP      L**3/T
     ------------------                 ------------------------

           IN:                                      IN:
           ---                                      ---
               AG WELLS  =   807799168.0000                 AG WELLS  =           0.0000
      DIVERSION SEGMENTS =           0.0000        DIVERSION SEGMENTS =           0.0000
       IRRIGATION PONDS  =           0.0000         IRRIGATION PONDS  =           0.0000
           GW IRRIGATION =           0.0000             GW IRRIGATION =           0.0000
           SW IRRIGATION =           0.0000             SW IRRIGATION =           0.0000
        SYSTEM LOSSES GW =           0.0000          SYSTEM LOSSES GW =           0.0000
        SYSTEM LOSSES SW =           0.0000          SYSTEM LOSSES SW =           0.0000

                TOTAL IN =   807799168.0000                  TOTAL IN =           0.0000

          OUT:                                     OUT:
          ----                                     ----
               AG WELLS  =           0.0000                 AG WELLS  =           0.0000
      DIVERSION SEGMENTS =           0.0000        DIVERSION SEGMENTS =           0.0000
       IRRIGATION PONDS  =           0.0000         IRRIGATION PONDS  =           0.0000
           GW IRRIGATION =   807799168.0000             GW IRRIGATION =           0.0000
           SW IRRIGATION =           0.0000             SW IRRIGATION =           0.0000
        SYSTEM LOSSES GW =           0.0000          SYSTEM LOSSES GW =           0.0000
        SYSTEM LOSSES SW =           0.0000          SYSTEM LOSSES SW =           0.0000

               TOTAL OUT =   807799168.0000                 TOTAL OUT =           0.0000

                IN - OUT =           0.0000                  IN - OUT =           0.0000

     PERCENT DISCREPANCY =           0.00         PERCENT DISCREPANCY =           0.00



1
  VOLUMETRIC BUDGET FOR ENTIRE MODEL AT END OF TIME STEP   30, STRESS PERIOD  24
  ------------------------------------------------------------------------------

     CUMULATIVE VOLUMES      L**3       RATES FOR THIS TIME STEP      L**3/T
     ------------------                 ------------------------

           IN:                                      IN:
           ---                                      ---
             STORAGE     =  1069662464.0000               STORAGE     =          10.3262
       CONSTANT HEAD     =           0.0000         CONSTANT HEAD     =           0.0000
     HEAD DEP BOUNDS     =    17292082.0000       HEAD DEP BOUNDS     =           0.2858
      STREAM LEAKAGE     =   754069184.0000        STREAM LEAKAGE     =          11.7098
        UZF RECHARGE     =       73223.9531          UZF RECHARGE     =           0.0000
               GW ET     =           0.0000                 GW ET     =           0.0000
     SURFACE LEAKAGE     =           0.0000       SURFACE LEAKAGE     =           0.0000
           AG WELLS      =           0.0000             AG WELLS      =           0.0000

                TOTAL IN =  1841096960.0000                  TOTAL IN =          22.3218

          OUT:                                     OUT:
          ----                                     ----
             STORAGE     =   369670560.0000               STORAGE     =          11.6310
       CONSTANT HEAD     =           0.0000         CONSTANT HEAD     =           0.0000
     HEAD DEP BOUNDS     =    17823952.0000       HEAD DEP BOUNDS     =           0.2899
      STREAM LEAKAGE     =   628203520.0000        STREAM LEAKAGE     =          10.4009
        UZF RECHARGE     =           0.0000          UZF RECHARGE     =           0.0000
               GW ET     =    17603406.0000                 GW ET     =           0.0000
     SURFACE LEAKAGE     =           0.0000       SURFACE LEAKAGE     =           0.0000
           AG WELLS      =   807799168.0000             AG WELLS      =           0.0000

               TOTAL OUT =  1841100544.0000                 TOTAL OUT =          22.3218

                IN - OUT =       -3584.0000                  IN - OUT =       7.6294E-06

     PERCENT DISCREPANCY =          -0.00         PERCENT DISCREPANCY =           0.00






         TIME SUMMARY AT END OF TIME STEP   30 IN STRESS PERIOD   24
                    SECONDS     MINUTES      HOURS       DAYS        YEARS
                    -----------------------------------------------------------
   TIME STEP LENGTH  87667.      1461.1      24.352      1.0147     2.77799E-03
 STRESS PERIOD TIME 2.63000E+06  43833.      730.56      30.440     8.33397E-02
         TOTAL TIME 6.05767E+07 1.00961E+06  16827.      701.12      1.9196    
1
1
                            STRESS PERIOD NO.   25, LENGTH =   2630000.    
                            -----------------------------------------------

                              NUMBER OF TIME STEPS =    30

                               MULTIPLIER FOR DELT =     1.000

                            INITIAL TIME STEP SIZE =   87666.66    

 REUSING NON-PARAMETER GHB CELLS FROM LAST STRESS PERIOD

      2 GHB CELLS

 REUSING STREAM SEGMENT DATA FROM LAST STRESS PERIOD



            AREAL INFILTRATION RATE
 READING ON UNIT   19 WITH FORMAT: (FREE)              

            1           2           3           4           5           6           7           8           9          10
 ........................................................................................................................
   1   1.0000E-10  2.0000E-10   0.000       0.000       0.000       0.000       0.000       0.000       0.000       0.000    
   2   2.0000E-10  1.0000E-10  2.0000E-10   0.000       0.000      8.0000E-10  8.0000E-10  5.0000E-10   0.000       0.000    
   3    0.000      5.0000E-10  1.0000E-10  1.0000E-10  8.0000E-10  8.0000E-10  5.0000E-10  5.0000E-10   0.000       0.000    
   4   8.0000E-10  5.0000E-10  1.0000E-10  1.0000E-10  1.0000E-10  1.0000E-10  1.0000E-10  1.0000E-10  2.0000E-10   0.000    
   5   8.0000E-10  5.0000E-10  1.0000E-10  1.0000E-10  1.0000E-10  1.0000E-10  1.0000E-10  1.0000E-10  1.0000E-10  1.0000E-10
   6   8.0000E-10  5.0000E-10  5.0000E-10  2.0000E-10  2.0000E-10  1.0000E-10  1.0000E-10  1.0000E-10  1.0000E-10  5.0000E-10
   7   8.0000E-10  5.0000E-10  5.0000E-10  2.0000E-10  2.0000E-10  1.0000E-10  1.0000E-10  2.0000E-10  2.0000E-10   0.000    
   8    0.000      5.0000E-10  5.0000E-10  2.0000E-10  2.0000E-10  1.0000E-10  1.0000E-10  2.0000E-10  5.0000E-10   0.000    
   9    0.000      5.0000E-10  5.0000E-10  2.0000E-10  2.0000E-10  1.0000E-10  1.0000E-10  2.0000E-10  5.0000E-10   0.000    
  10    0.000      5.0000E-10  5.0000E-10  2.0000E-10  2.0000E-10  1.0000E-10  1.0000E-10  2.0000E-10  5.0000E-10  8.0000E-10
  11    0.000      1.0000E-10  1.0000E-10  1.0000E-10  1.0000E-10  1.0000E-10  1.0000E-10  2.0000E-10  5.0000E-10   0.000    
  12   1.0000E-10  1.0000E-10  1.0000E-10  1.0000E-10  1.0000E-10  1.0000E-10  1.0000E-10  1.0000E-10  2.0000E-10   0.000    
  13   1.0000E-10  1.0000E-10  2.0000E-10  2.0000E-10  2.0000E-10  2.0000E-10  2.0000E-10  1.0000E-10  1.0000E-10   0.000    
  14    0.000      2.0000E-10  5.0000E-10  5.0000E-10  5.0000E-10  5.0000E-10  5.0000E-10  2.0000E-10  1.0000E-10   0.000    
  15    0.000       0.000      8.0000E-10  8.0000E-10  8.0000E-10  8.0000E-10   0.000       0.000       0.000       0.000    

                  ET RATE =  5.000000E-10

 USING ET EXTINCTION DEPTH FROM PREVIOUS STRESS PERIOD. CURRENT PERIOD IS:      25

 USING EXTINCTION WATER CONTENT FROM PREVIOUS STRESS PERIOD. CURRENT PERIOD IS:      25

 USING AIR ENTRY PRESSURE FROM PREVIOUS STRESS PERIOD. CURRENT PERIOD IS:      25

 USING ROOT PRESSURE HEAD FROM PREVIOUS STRESS PERIOD. CURRENT PERIOD IS:      25

 USING ROOT ACTIVITY FROM PREVIOUS STRESS PERIOD. CURRENT PERIOD IS:      25

 PROCESSING AG STRESS PERIOD DATA

 READING AG STRESS PERIOD DATA

 READING IRRIGATION WELL

 NO IRRPOND OR REUSING IRRPOND DATA FROM LAST STRESS PERIOD

 END PROCESSING AG STRESS PERIOD DATA OPTIONS
 
 SOLVING FOR HEAD 
                                                   Max.-Head-Change                         Max.-Flux-Residual
  Residual-Control   Outer-Iter.   Inner-Iter.     Column Row Layer    Maximum-Head-Change  Column Row Layer    Maximum-Flux-Residual          L2-NORM 
          0                 1           2             4    7     1       0.3403860516E-01       4    7    1         0.1791486353E+01      0.3850069708E+01
          0                 2           2             4    7     1      -0.3311053334E-02       4    7    1        -0.1791503456E+00      0.3850039457E+00
          0                 3           2             4    7     1       0.2254702103E-03       4    7    1         0.1254051344E-01      0.2694989174E-01
          0                 4           1             4    7     1      -0.8971671700E-05       4    7    1        -0.5129077811E-03      0.1102226392E-02

    ------------------------------------------------
       NWT REQUIRED            4 OUTER ITERATIONS 
       AND A TOTAL OF          7 INNER ITERATIONS.
    ------------------------------------------------

 NO OUTPUT CONTROL FOR STRESS PERIOD   25   TIME STEP    1
 
 SOLVING FOR HEAD 
                                                   Max.-Head-Change                         Max.-Flux-Residual
  Residual-Control   Outer-Iter.   Inner-Iter.     Column Row Layer    Maximum-Head-Change  Column Row Layer    Maximum-Flux-Residual          L2-NORM 
          0                 1           2             4    7     1       0.3360528805E-01       4    7    1         0.1768582334E+01      0.3809986482E+01
          0                 2           2             4    7     1      -0.3268902756E-02       4    7    1        -0.1768599002E+00      0.3809947202E+00
          0                 3           2             4    7     1       0.2225999184E-03       4    7    1         0.1238018258E-01      0.2666915800E-01
          0                 4           1             4    7     1      -0.8857460055E-05       4    7    1        -0.5063502406E-03      0.1090735331E-02

    ------------------------------------------------
       NWT REQUIRED            4 OUTER ITERATIONS 
       AND A TOTAL OF          7 INNER ITERATIONS.
    ------------------------------------------------

 NO OUTPUT CONTROL FOR STRESS PERIOD   25   TIME STEP    2
 
 SOLVING FOR HEAD 
                                                   Max.-Head-Change                         Max.-Flux-Residual
  Residual-Control   Outer-Iter.   Inner-Iter.     Column Row Layer    Maximum-Head-Change  Column Row Layer    Maximum-Flux-Residual          L2-NORM 
          0                 1           2             4    7     1       0.3317940868E-01       4    7    1         0.1746071589E+01      0.3769999175E+01
          0                 2           2             4    7     1      -0.3227475685E-02       4    7    1        -0.1746087835E+00      0.3769962667E+00
          0                 3           2             4    7     1       0.2197788948E-03       4    7    1         0.1222260476E-01      0.2638930803E-01
          0                 4           1             4    7     1      -0.8745209033E-05       4    7    1        -0.4999053062E-03      0.1079289798E-02

    ------------------------------------------------
       NWT REQUIRED            4 OUTER ITERATIONS 
       AND A TOTAL OF          7 INNER ITERATIONS.
    ------------------------------------------------

 NO OUTPUT CONTROL FOR STRESS PERIOD   25   TIME STEP    3
 
 SOLVING FOR HEAD 
                                                   Max.-Head-Change                         Max.-Flux-Residual
  Residual-Control   Outer-Iter.   Inner-Iter.     Column Row Layer    Maximum-Head-Change  Column Row Layer    Maximum-Flux-Residual          L2-NORM 
          0                 1           2             4    7     1       0.3276069308E-01       4    7    1         0.1723939165E+01      0.3730707642E+01
          0                 2           2             4    7     1      -0.3186745469E-02       4    7    1        -0.1723954999E+00      0.3730673823E+00
          0                 3           2             4    7     1       0.2170053241E-03       4    7    1         0.1206767522E-01      0.2611432467E-01
          0                 4           1             4    7     1      -0.8634846334E-05       4    7    1        -0.4935686870E-03      0.1068070269E-02

    ------------------------------------------------
       NWT REQUIRED            4 OUTER ITERATIONS 
       AND A TOTAL OF          7 INNER ITERATIONS.
    ------------------------------------------------

 NO OUTPUT CONTROL FOR STRESS PERIOD   25   TIME STEP    4
 
 SOLVING FOR HEAD 
                                                   Max.-Head-Change                         Max.-Flux-Residual
  Residual-Control   Outer-Iter.   Inner-Iter.     Column Row Layer    Maximum-Head-Change  Column Row Layer    Maximum-Flux-Residual          L2-NORM 
          0                 1           2             4    7     1       0.3234913959E-01       4    7    1         0.1702185477E+01      0.3692092125E+01
          0                 2           2             4    7     1      -0.3146711948E-02       4    7    1        -0.1702200911E+00      0.3692060518E+00
          0                 3           2             4    7     1       0.2142791955E-03       4    7    1         0.1191539693E-01      0.2584406197E-01
          0                 4           1             4    7     1      -0.8526370921E-05       4    7    1        -0.4873404866E-03      0.1057006949E-02

    ------------------------------------------------
       NWT REQUIRED            4 OUTER ITERATIONS 
       AND A TOTAL OF          7 INNER ITERATIONS.
    ------------------------------------------------

 NO OUTPUT CONTROL FOR STRESS PERIOD   25   TIME STEP    5
 
 SOLVING FOR HEAD 
                                                   Max.-Head-Change                         Max.-Flux-Residual
  Residual-Control   Outer-Iter.   Inner-Iter.     Column Row Layer    Maximum-Head-Change  Column Row Layer    Maximum-Flux-Residual          L2-NORM 
          0                 1           2             4    7     1       0.3194460844E-01       4    7    1         0.1680803129E+01      0.3654139085E+01
          0                 2           2             4    7     1      -0.3107361924E-02       4    7    1        -0.1680818173E+00      0.3654076646E+00
          0                 3           2             4    7     1       0.2115999996E-03       4    7    1         0.1176571806E-01      0.2558854837E-01
          0                 4           1             4    7     1      -0.8419762878E-05       4    7    1        -0.4812185928E-03      0.1046567403E-02

    ------------------------------------------------
       NWT REQUIRED            4 OUTER ITERATIONS 
       AND A TOTAL OF          7 INNER ITERATIONS.
    ------------------------------------------------

 NO OUTPUT CONTROL FOR STRESS PERIOD   25   TIME STEP    6
 
 SOLVING FOR HEAD 
                                                   Max.-Head-Change                         Max.-Flux-Residual
  Residual-Control   Outer-Iter.   Inner-Iter.     Column Row Layer    Maximum-Head-Change  Column Row Layer    Maximum-Flux-Residual          L2-NORM 
          0                 1           2             4    7     1       0.3154695951E-01       4    7    1         0.1659784875E+01      0.3616819751E+01
          0                 2           2             4    7     1      -0.3068675643E-02       4    7    1        -0.1659799539E+00      0.3615542190E+00
          0                 3           2             4    7     1       0.2089652234E-03       4    7    1         0.1161858792E-01      0.2530847573E-01
          0                 4           1             4    7     1      -0.8314922850E-05       4    7    1        -0.4752009797E-03      0.1035105384E-02

    ------------------------------------------------
       NWT REQUIRED            4 OUTER ITERATIONS 
       AND A TOTAL OF          7 INNER ITERATIONS.
    ------------------------------------------------

 NO OUTPUT CONTROL FOR STRESS PERIOD   25   TIME STEP    7
 
 SOLVING FOR HEAD 
                                                   Max.-Head-Change                         Max.-Flux-Residual
  Residual-Control   Outer-Iter.   Inner-Iter.     Column Row Layer    Maximum-Head-Change  Column Row Layer    Maximum-Flux-Residual          L2-NORM 
          0                 1           2             4    7     1       0.3115607584E-01       4    7    1         0.1639123711E+01      0.3580241249E+01
          0                 2           2             4    7     1      -0.3030657703E-02       4    7    1        -0.1639138005E+00      0.3580215349E+00
          0                 3           2             4    7     1       0.2063763479E-03       4    7    1         0.1147395747E-01      0.2506117779E-01
          0                 4           1             4    7     1      -0.8211909091E-05       4    7    1        -0.4692855784E-03      0.1024985687E-02

    ------------------------------------------------
       NWT REQUIRED            4 OUTER ITERATIONS 
       AND A TOTAL OF          7 INNER ITERATIONS.
    ------------------------------------------------

 NO OUTPUT CONTROL FOR STRESS PERIOD   25   TIME STEP    8
 
 SOLVING FOR HEAD 
                                                   Max.-Head-Change                         Max.-Flux-Residual
  Residual-Control   Outer-Iter.   Inner-Iter.     Column Row Layer    Maximum-Head-Change  Column Row Layer    Maximum-Flux-Residual          L2-NORM 
          0                 1           2             4    7     1       0.3077181594E-01       4    7    1         0.1618812787E+01      0.3544285185E+01
          0                 2           2             4    7     1      -0.2993279163E-02       4    7    1        -0.1618826721E+00      0.3544260847E+00
          0                 3           2             4    7     1       0.2038310130E-03       4    7    1         0.1133177876E-01      0.2480953554E-01
          0                 4           1             4    7     1      -0.8110628002E-05       4    7    1        -0.4634704580E-03      0.1014703409E-02

    ------------------------------------------------
       NWT REQUIRED            4 OUTER ITERATIONS 
       AND A TOTAL OF          7 INNER ITERATIONS.
    ------------------------------------------------

 NO OUTPUT CONTROL FOR STRESS PERIOD   25   TIME STEP    9
 
 SOLVING FOR HEAD 
                                                   Max.-Head-Change                         Max.-Flux-Residual
  Residual-Control   Outer-Iter.   Inner-Iter.     Column Row Layer    Maximum-Head-Change  Column Row Layer    Maximum-Flux-Residual          L2-NORM 
          0                 1           2             4    7     1       0.3039405064E-01       4    7    1         0.1598845554E+01      0.3508916142E+01
          0                 2           2             4    7     1      -0.2956532385E-02       4    7    1        -0.1598859138E+00      0.3508893007E+00
          0                 3           2             4    7     1       0.2013286987E-03       4    7    1         0.1119200595E-01      0.2456197356E-01
          0                 4           1             4    7     1      -0.8011058400E-05       4    7    1        -0.4577537416E-03      0.1004568305E-02

    ------------------------------------------------
       NWT REQUIRED            4 OUTER ITERATIONS 
       AND A TOTAL OF          7 INNER ITERATIONS.
    ------------------------------------------------

 NO OUTPUT CONTROL FOR STRESS PERIOD   25   TIME STEP   10
 
 SOLVING FOR HEAD 
                                                   Max.-Head-Change                         Max.-Flux-Residual
  Residual-Control   Outer-Iter.   Inner-Iter.     Column Row Layer    Maximum-Head-Change  Column Row Layer    Maximum-Flux-Residual          L2-NORM 
          0                 1           2             4    7     1       0.3002279140E-01       4    7    1         0.1579222366E+01      0.3474135939E+01
          0                 2           2             4    7     1      -0.2920418483E-02       4    7    1        -0.1579235609E+00      0.3474114218E+00
          0                 3           2             4    7     1       0.1988694807E-03       4    7    1         0.1105464151E-01      0.2431852890E-01
          0                 4           1             4    7     1      -0.7913203739E-05       4    7    1        -0.4521355158E-03      0.9946124697E-03

    ------------------------------------------------
       NWT REQUIRED            4 OUTER ITERATIONS 
       AND A TOTAL OF          7 INNER ITERATIONS.
    ------------------------------------------------

 NO OUTPUT CONTROL FOR STRESS PERIOD   25   TIME STEP   11
 
 SOLVING FOR HEAD 
                                                   Max.-Head-Change                         Max.-Flux-Residual
  Residual-Control   Outer-Iter.   Inner-Iter.     Column Row Layer    Maximum-Head-Change  Column Row Layer    Maximum-Flux-Residual          L2-NORM 
          0                 1           2             4    7     1       0.2965776882E-01       4    7    1         0.1559929190E+01      0.3439913466E+01
          0                 2           2             4    7     1      -0.2884911251E-02       4    7    1        -0.1559942101E+00      0.3439892584E+00
          0                 3           2             4    7     1       0.1964515739E-03       4    7    1         0.1091958721E-01      0.2407897646E-01
          0                 4           1             4    7     1      -0.7816992985E-05       4    7    1        -0.4466117898E-03      0.9848039312E-03

    ------------------------------------------------
       NWT REQUIRED            4 OUTER ITERATIONS 
       AND A TOTAL OF          7 INNER ITERATIONS.
    ------------------------------------------------

 NO OUTPUT CONTROL FOR STRESS PERIOD   25   TIME STEP   12
 
 SOLVING FOR HEAD 
                                                   Max.-Head-Change                         Max.-Flux-Residual
  Residual-Control   Outer-Iter.   Inner-Iter.     Column Row Layer    Maximum-Head-Change  Column Row Layer    Maximum-Flux-Residual          L2-NORM 
          0                 1           2             4    7     1       0.2929899494E-01       4    7    1         0.1540966686E+01      0.3406254494E+01
          0                 2           2             4    7     1      -0.2850011947E-02       4    7    1        -0.1540979274E+00      0.3406235621E+00
          0                 3           2             4    7     1       0.1940750651E-03       4    7    1         0.1078684767E-01      0.2384340106E-01
          0                 4           1             4    7     1      -0.7722429362E-05       4    7    1        -0.4411827310E-03      0.9751954087E-03

    ------------------------------------------------
       NWT REQUIRED            4 OUTER ITERATIONS 
       AND A TOTAL OF          7 INNER ITERATIONS.
    ------------------------------------------------

 NO OUTPUT CONTROL FOR STRESS PERIOD   25   TIME STEP   13
 
 SOLVING FOR HEAD 
                                                   Max.-Head-Change                         Max.-Flux-Residual
  Residual-Control   Outer-Iter.   Inner-Iter.     Column Row Layer    Maximum-Head-Change  Column Row Layer    Maximum-Flux-Residual          L2-NORM 
          0                 1           2             4    7     1       0.2894620144E-01       4    7    1         0.1522320845E+01      0.3373128904E+01
          0                 2           2             4    7     1      -0.2815694295E-02       4    7    1        -0.1522333119E+00      0.3373110566E+00
          0                 3           2             4    7     1       0.1917381648E-03       4    7    1         0.1065632482E-01      0.2361153589E-01
          0                 4           1             4    7     1      -0.7629441835E-05       4    7    1        -0.4358443432E-03      0.9656959716E-03

    ------------------------------------------------
       NWT REQUIRED            4 OUTER ITERATIONS 
       AND A TOTAL OF          7 INNER ITERATIONS.
    ------------------------------------------------

 NO OUTPUT CONTROL FOR STRESS PERIOD   25   TIME STEP   14
 
 SOLVING FOR HEAD 
                                                   Max.-Head-Change                         Max.-Flux-Residual
  Residual-Control   Outer-Iter.   Inner-Iter.     Column Row Layer    Maximum-Head-Change  Column Row Layer    Maximum-Flux-Residual          L2-NORM 
          0                 1           2             4    7     1       0.2859940593E-01       4    7    1         0.1503992395E+01      0.3340534405E+01
          0                 2           2             4    7     1      -0.2781960095E-02       4    7    1        -0.1504004363E+00      0.3340516821E+00
          0                 3           2             4    7     1       0.1894409953E-03       4    7    1         0.1052802376E-01      0.2338338546E-01
          0                 4           1             4    7     1      -0.7538035126E-05       4    7    1        -0.4305968248E-03      0.9563658065E-03

    ------------------------------------------------
       NWT REQUIRED            4 OUTER ITERATIONS 
       AND A TOTAL OF          7 INNER ITERATIONS.
    ------------------------------------------------

 NO OUTPUT CONTROL FOR STRESS PERIOD   25   TIME STEP   15
 
 SOLVING FOR HEAD 
                                                   Max.-Head-Change                         Max.-Flux-Residual
  Residual-Control   Outer-Iter.   Inner-Iter.     Column Row Layer    Maximum-Head-Change  Column Row Layer    Maximum-Flux-Residual          L2-NORM 
          0                 1           2             4    7     1       0.2825848431E-01       4    7    1         0.1485974928E+01      0.3308467893E+01
          0                 2           2             4    7     1      -0.2748797278E-02       4    7    1        -0.1485986600E+00      0.3308450733E+00
          0                 3           2             4    7     1       0.1871827350E-03       4    7    1         0.1040189965E-01      0.2315891968E-01
          0                 4           1             4    7     1      -0.7448177228E-05       4    7    1        -0.4254383452E-03      0.9471894328E-03

    ------------------------------------------------
       NWT REQUIRED            4 OUTER ITERATIONS 
       AND A TOTAL OF          7 INNER ITERATIONS.
    ------------------------------------------------

 NO OUTPUT CONTROL FOR STRESS PERIOD   25   TIME STEP   16
 
 SOLVING FOR HEAD 
                                                   Max.-Head-Change                         Max.-Flux-Residual
  Residual-Control   Outer-Iter.   Inner-Iter.     Column Row Layer    Maximum-Head-Change  Column Row Layer    Maximum-Flux-Residual          L2-NORM 
          0                 1           2             4    7     1       0.2792330953E-01       4    7    1         0.1468262011E+01      0.3276896541E+01
          0                 2           2             4    7     1      -0.2716193483E-02       4    7    1        -0.1468273394E+00      0.3276879792E+00
          0                 3           2             4    7     1       0.1849625415E-03       4    7    1         0.1027790743E-01      0.2293792024E-01
          0                 4           1             4    7     1      -0.7359833718E-05       4    7    1        -0.4203670528E-03      0.9381525285E-03

    ------------------------------------------------
       NWT REQUIRED            4 OUTER ITERATIONS 
       AND A TOTAL OF          7 INNER ITERATIONS.
    ------------------------------------------------

 NO OUTPUT CONTROL FOR STRESS PERIOD   25   TIME STEP   17
 
 SOLVING FOR HEAD 
                                                   Max.-Head-Change                         Max.-Flux-Residual
  Residual-Control   Outer-Iter.   Inner-Iter.     Column Row Layer    Maximum-Head-Change  Column Row Layer    Maximum-Flux-Residual          L2-NORM 
          0                 1           2             4    7     1       0.2759376353E-01       4    7    1         0.1450847057E+01      0.3245822865E+01
          0                 2           2             4    7     1      -0.2684137228E-02       4    7    1        -0.1450858158E+00      0.3245806590E+00
          0                 3           2             4    7     1       0.1827796334E-03       4    7    1         0.1015600100E-01      0.2272041551E-01
          0                 4           1             4    7     1      -0.7272973512E-05       4    7    1        -0.4153810676E-03      0.9292413554E-03

    ------------------------------------------------
       NWT REQUIRED            4 OUTER ITERATIONS 
       AND A TOTAL OF          7 INNER ITERATIONS.
    ------------------------------------------------

 NO OUTPUT CONTROL FOR STRESS PERIOD   25   TIME STEP   18
 
 SOLVING FOR HEAD 
                                                   Max.-Head-Change                         Max.-Flux-Residual
  Residual-Control   Outer-Iter.   Inner-Iter.     Column Row Layer    Maximum-Head-Change  Column Row Layer    Maximum-Flux-Residual          L2-NORM 
          0                 1           2             4    7     1       0.2726972741E-01       4    7    1         0.1433723944E+01      0.3215235152E+01
          0                 2           2             4    7     1      -0.2652616944E-02       4    7    1        -0.1433734771E+00      0.3215219627E+00
          0                 3           2             4    7     1       0.1806332232E-03       4    7    1         0.1003613750E-01      0.2250633102E-01
          0                 4           1             4    7     1      -0.7187565872E-05       4    7    1        -0.4104786485E-03      0.9204953445E-03

    ------------------------------------------------
       NWT REQUIRED            4 OUTER ITERATIONS 
       AND A TOTAL OF          7 INNER ITERATIONS.
    ------------------------------------------------

 NO OUTPUT CONTROL FOR STRESS PERIOD   25   TIME STEP   19
 
 SOLVING FOR HEAD 
                                                   Max.-Head-Change                         Max.-Flux-Residual
  Residual-Control   Outer-Iter.   Inner-Iter.     Column Row Layer    Maximum-Head-Change  Column Row Layer    Maximum-Flux-Residual          L2-NORM 
          0                 1           2             4    7     1       0.2695108461E-01       4    7    1         0.1416886507E+01      0.3185122456E+01
          0                 2           2             4    7     1      -0.2621621294E-02       4    7    1        -0.1416897068E+00      0.3185106994E+00
          0                 3           2             4    7     1       0.1785225379E-03       4    7    1         0.9918273759E-02      0.2229554354E-01
          0                 4           1             4    7     1      -0.7103579942E-05       4    7    1        -0.4056580251E-03      0.9118724910E-03

    ------------------------------------------------
       NWT REQUIRED            4 OUTER ITERATIONS 
       AND A TOTAL OF          7 INNER ITERATIONS.
    ------------------------------------------------

 NO OUTPUT CONTROL FOR STRESS PERIOD   25   TIME STEP   20
 
 SOLVING FOR HEAD 
                                                   Max.-Head-Change                         Max.-Flux-Residual
  Residual-Control   Outer-Iter.   Inner-Iter.     Column Row Layer    Maximum-Head-Change  Column Row Layer    Maximum-Flux-Residual          L2-NORM 
          0                 1           2             4    7     1       0.2663785521E-01       4    7    1         0.1400336021E+01      0.3155473989E+01
          0                 2           2             4    7     1      -0.2591152231E-02       4    7    1        -0.1400346324E+00      0.3155458146E+00
          0                 3           2             4    7     1       0.1764477111E-03       4    7    1         0.9802418740E-02      0.2208796273E-01
          0                 4           1             4    7     1      -0.7021020328E-05       4    7    1        -0.4009195202E-03      0.9033977264E-03

    ------------------------------------------------
       NWT REQUIRED            4 OUTER ITERATIONS 
       AND A TOTAL OF          7 INNER ITERATIONS.
    ------------------------------------------------

 NO OUTPUT CONTROL FOR STRESS PERIOD   25   TIME STEP   21
 
 SOLVING FOR HEAD 
                                                   Max.-Head-Change                         Max.-Flux-Residual
  Residual-Control   Outer-Iter.   Inner-Iter.     Column Row Layer    Maximum-Head-Change  Column Row Layer    Maximum-Flux-Residual          L2-NORM 
          0                 1           2             4    7     1       0.2632965344E-01       4    7    1         0.1384051573E+01      0.3126277497E+01
          0                 2           2             4    7     1      -0.2561172230E-02       4    7    1        -0.1384061623E+00      0.3126262533E+00
          0                 3           2             4    7     1       0.1744061878E-03       4    7    1         0.9688426035E-02      0.2188362922E-01
          0                 4           1             4    7     1      -0.6939786178E-05       4    7    1        -0.3962572123E-03      0.8950205794E-03

    ------------------------------------------------
       NWT REQUIRED            4 OUTER ITERATIONS 
       AND A TOTAL OF          7 INNER ITERATIONS.
    ------------------------------------------------

 NO OUTPUT CONTROL FOR STRESS PERIOD   25   TIME STEP   22
 
 SOLVING FOR HEAD 
                                                   Max.-Head-Change                         Max.-Flux-Residual
  Residual-Control   Outer-Iter.   Inner-Iter.     Column Row Layer    Maximum-Head-Change  Column Row Layer    Maximum-Flux-Residual          L2-NORM 
          0                 1           2             4    7     1       0.2602664713E-01       4    7    1         0.1368042434E+01      0.3097532023E+01
          0                 2           2             4    7     1      -0.2531697615E-02       4    7    1        -0.1368052240E+00      0.3097517332E+00
          0                 3           2             4    7     1       0.1723990794E-03       4    7    1         0.9576360535E-02      0.2168243108E-01
          0                 4           1             4    7     1      -0.6859921356E-05       4    7    1        -0.3916737289E-03      0.8868081003E-03

    ------------------------------------------------
       NWT REQUIRED            4 OUTER ITERATIONS 
       AND A TOTAL OF          7 INNER ITERATIONS.
    ------------------------------------------------

 NO OUTPUT CONTROL FOR STRESS PERIOD   25   TIME STEP   23
 
 SOLVING FOR HEAD 
                                                   Max.-Head-Change                         Max.-Flux-Residual
  Residual-Control   Outer-Iter.   Inner-Iter.     Column Row Layer    Maximum-Head-Change  Column Row Layer    Maximum-Flux-Residual          L2-NORM 
          0                 1           2             4    7     1       0.2572872195E-01       4    7    1         0.1352302671E+01      0.3069218015E+01
          0                 2           2             4    7     1      -0.2502717267E-02       4    7    1        -0.1352312239E+00      0.3069203622E+00
          0                 3           2             4    7     1       0.1704256287E-03       4    7    1         0.9466180702E-02      0.2148423179E-01
          0                 4           1             4    7     1      -0.6781396043E-05       4    7    1        -0.3871673748E-03      0.8787267651E-03

    ------------------------------------------------
       NWT REQUIRED            4 OUTER ITERATIONS 
       AND A TOTAL OF          7 INNER ITERATIONS.
    ------------------------------------------------

 NO OUTPUT CONTROL FOR STRESS PERIOD   25   TIME STEP   24
 
 SOLVING FOR HEAD 
                                                   Max.-Head-Change                         Max.-Flux-Residual
  Residual-Control   Outer-Iter.   Inner-Iter.     Column Row Layer    Maximum-Head-Change  Column Row Layer    Maximum-Flux-Residual          L2-NORM 
          0                 1           2             4    7     1       0.2543563437E-01       4    7    1         0.1336819036E+01      0.3041335010E+01
          0                 2           2             4    7     1      -0.2474207494E-02       4    7    1        -0.1336828372E+00      0.3041320603E+00
          0                 3           2             4    7     1       0.1684842223E-03       4    7    1         0.9357793812E-02      0.2128904029E-01
          0                 4           1             4    7     1      -0.6704145654E-05       4    7    1        -0.3827343410E-03      0.8707097902E-03

    ------------------------------------------------
       NWT REQUIRED            4 OUTER ITERATIONS 
       AND A TOTAL OF          7 INNER ITERATIONS.
    ------------------------------------------------

 NO OUTPUT CONTROL FOR STRESS PERIOD   25   TIME STEP   25
 
 SOLVING FOR HEAD 
                                                   Max.-Head-Change                         Max.-Flux-Residual
  Residual-Control   Outer-Iter.   Inner-Iter.     Column Row Layer    Maximum-Head-Change  Column Row Layer    Maximum-Flux-Residual          L2-NORM 
          0                 1           2             4    7     1       0.2514741409E-01       4    7    1         0.1321593541E+01      0.3013868490E+01
          0                 2           2             4    7     1      -0.2446171186E-02       4    7    1        -0.1321602651E+00      0.3013854332E+00
          0                 3           2             4    7     1       0.1665750570E-03       4    7    1         0.9251213935E-02      0.2109681090E-01
          0                 4           1             4    7     1      -0.6628178246E-05       4    7    1        -0.3783752245E-03      0.8628624845E-03

    ------------------------------------------------
       NWT REQUIRED            4 OUTER ITERATIONS 
       AND A TOTAL OF          7 INNER ITERATIONS.
    ------------------------------------------------

 NO OUTPUT CONTROL FOR STRESS PERIOD   25   TIME STEP   26
 
 SOLVING FOR HEAD 
                                                   Max.-Head-Change                         Max.-Flux-Residual
  Residual-Control   Outer-Iter.   Inner-Iter.     Column Row Layer    Maximum-Head-Change  Column Row Layer    Maximum-Flux-Residual          L2-NORM 
          0                 1           2             4    7     1       0.2486395711E-01       4    7    1         0.1306620406E+01      0.2986812149E+01
          0                 2           2             4    7     1      -0.2418598227E-02       4    7    1        -0.1306629297E+00      0.2986798299E+00
          0                 3           2             4    7     1       0.1646974440E-03       4    7    1         0.9146400618E-02      0.2090740397E-01
          0                 4           1             4    7     1      -0.6553466190E-05       4    7    1        -0.3740883574E-03      0.8551010819E-03

    ------------------------------------------------
       NWT REQUIRED            4 OUTER ITERATIONS 
       AND A TOTAL OF          7 INNER ITERATIONS.
    ------------------------------------------------

 NO OUTPUT CONTROL FOR STRESS PERIOD   25   TIME STEP   27
 
 SOLVING FOR HEAD 
                                                   Max.-Head-Change                         Max.-Flux-Residual
  Residual-Control   Outer-Iter.   Inner-Iter.     Column Row Layer    Maximum-Head-Change  Column Row Layer    Maximum-Flux-Residual          L2-NORM 
          0                 1           2             4    7     1       0.2458502508E-01       4    7    1         0.1291886919E+01      0.2960152404E+01
          0                 2           2             4    7     1      -0.2391465430E-02       4    7    1        -0.1291895597E+00      0.2960138091E+00
          0                 3           2             4    7     1       0.1628498038E-03       4    7    1         0.9043264857E-02      0.2072075776E-01
          0                 4           1             4    7     1      -0.6479946971E-05       4    7    1        -0.3698700868E-03      0.8474707528E-03

    ------------------------------------------------
       NWT REQUIRED            4 OUTER ITERATIONS 
       AND A TOTAL OF          7 INNER ITERATIONS.
    ------------------------------------------------

 NO OUTPUT CONTROL FOR STRESS PERIOD   25   TIME STEP   28
 
 SOLVING FOR HEAD 
                                                   Max.-Head-Change                         Max.-Flux-Residual
  Residual-Control   Outer-Iter.   Inner-Iter.     Column Row Layer    Maximum-Head-Change  Column Row Layer    Maximum-Flux-Residual          L2-NORM 
          0                 1           2             4    7     1       0.2431065531E-01       4    7    1         0.1277395362E+01      0.2933886356E+01
          0                 2           2             4    7     1      -0.2364776426E-02       4    7    1        -0.1277403833E+00      0.2933872457E+00
          0                 3           2             4    7     1       0.1610323850E-03       4    7    1         0.8941822687E-02      0.2053692555E-01
          0                 4           1             4    7     1      -0.6407629914E-05       4    7    1        -0.3657210952E-03      0.8399289035E-03

    ------------------------------------------------
       NWT REQUIRED            4 OUTER ITERATIONS 
       AND A TOTAL OF          7 INNER ITERATIONS.
    ------------------------------------------------

 NO OUTPUT CONTROL FOR STRESS PERIOD   25   TIME STEP   29
 
 SOLVING FOR HEAD 
                                                   Max.-Head-Change                         Max.-Flux-Residual
  Residual-Control   Outer-Iter.   Inner-Iter.     Column Row Layer    Maximum-Head-Change  Column Row Layer    Maximum-Flux-Residual          L2-NORM 
          0                 1           2             4    7     1       0.2404073862E-01       4    7    1         0.1263140351E+01      0.2911764857E+01
          0                 2           2             4    7     1      -0.2338520593E-02       4    7    1        -0.1263148620E+00      0.2911672194E+00
          0                 3           2             4    7     1       0.1592444630E-03       4    7    1         0.8842036345E-02      0.2038080556E-01
          0                 4           1             4    7     1      -0.6336486928E-05       4    7    1        -0.3616398292E-03      0.8335278692E-03

    ------------------------------------------------
       NWT REQUIRED            4 OUTER ITERATIONS 
       AND A TOTAL OF          7 INNER ITERATIONS.
    ------------------------------------------------

 NO OUTPUT CONTROL FOR STRESS PERIOD   25   TIME STEP   30



 STREAM LISTING     PERIOD     25   STEP       30

 LAYER ROW COL. STREAM  RCH.  FLOW INTO     FLOW TO   FLOW OUT OF   OVRLND.     DIRECT     STREAM       STREAM     STREAM     STREAM   STREAMBED  STREAMBED
                SEG.NO.  NO.  STRM. RCH.    AQUIFER    STRM. RCH.    RUNOFF     PRECIP       ET          HEAD       DEPTH      WIDTH   CONDCTNC.   GRADIENT

   1    1    1     1     1    1.8461E+01  2.1075E-01   1.8250E+01  0.000E+00  0.000E+00  0.000E+00  1.09412E+03  1.073E+00  1.150E+01  5.174E-02  1.358E+00
   1    2    2     1     2    1.8250E+01  3.2508E-01   1.7925E+01  0.000E+00  0.000E+00  0.000E+00  1.08913E+03  1.068E+00  1.141E+01  7.990E-02  1.356E+00
   1    3    3     1     3    1.7925E+01  2.7598E-01   1.7649E+01  0.000E+00  0.000E+00  0.000E+00  1.08348E+03  1.063E+00  1.132E+01  6.792E-02  1.354E+00
   1    3    4     1     4    1.7649E+01  2.5310E-01   1.7396E+01  0.000E+00  0.000E+00  0.000E+00  1.07847E+03  1.059E+00  1.124E+01  6.236E-02  1.353E+00
   1    4    5     2     1    1.5396E+01  3.0400E-01   1.5092E+01  0.000E+00  0.000E+00  0.000E+00  1.07283E+03  8.974E-01  1.200E+01  7.800E-02  1.299E+00
   1    5    6     2     2    1.5092E+01  2.3327E-01   1.4859E+01  0.000E+00  0.000E+00  0.000E+00  1.06740E+03  8.879E-01  1.200E+01  6.000E-02  1.296E+00
   1    6    6     2     3    1.4859E+01  2.3278E-01   1.4626E+01  0.000E+00  0.000E+00  0.000E+00  1.06267E+03  8.796E-01  1.200E+01  6.000E-02  1.293E+00
   1    7    6     2     4    1.4626E+01  2.3227E-01   1.4394E+01  0.000E+00  0.000E+00  0.000E+00  1.05795E+03  8.712E-01  1.200E+01  6.000E-02  1.290E+00
   1    8    6     2     5    1.4394E+01  2.3177E-01   1.4162E+01  0.000E+00  0.000E+00  0.000E+00  1.05322E+03  8.629E-01  1.200E+01  6.000E-02  1.288E+00
   1    3    5     3     1    2.0000E+00  2.8252E-01   1.7175E+00  0.000E+00  0.000E+00  0.000E+00  1.07555E+03  1.909E+00  9.636E+00  7.227E-02  1.955E+00
   1    3    6     3     2    1.7175E+00  2.4905E-01   1.4684E+00  0.000E+00  0.000E+00  0.000E+00  1.07264E+03  1.727E+00  8.909E+00  6.682E-02  1.864E+00
   1    3    7     3     3    1.4684E+00  1.9718E-01   1.2712E+00  0.000E+00  0.000E+00  0.000E+00  1.06987E+03  1.555E+00  8.218E+00  5.547E-02  1.777E+00
   1    4    8     3     4    1.2712E+00  2.2567E-01   1.0456E+00  0.000E+00  0.000E+00  0.000E+00  1.06682E+03  1.364E+00  7.455E+00  6.709E-02  1.682E+00
   1    5    8     3     5    1.0456E+00  1.5790E-01   8.8768E-01  0.000E+00  0.000E+00  0.000E+00  1.06362E+03  1.164E+00  6.655E+00  4.991E-02  1.582E+00
   1    6    8     3     6    8.8768E-01  5.5980E-02   8.3170E-01  0.000E+00  0.000E+00  0.000E+00  1.06158E+03  1.036E+00  6.145E+00  1.844E-02  1.518E+00
   1    5   10     4     1    1.0000E+01  9.0919E-02   9.9091E+00  0.000E+00  0.000E+00  0.000E+00  1.07836E+03  6.368E-01  1.000E+01  2.500E-02  1.212E+00
   1    5    9     4     2    9.9091E+00  1.8158E-01   9.7275E+00  0.000E+00  0.000E+00  0.000E+00  1.07154E+03  6.315E-01  1.000E+01  5.000E-02  1.211E+00
   1    6    8     4     3    9.7275E+00  1.2689E-01   9.6006E+00  0.000E+00  0.000E+00  0.000E+00  1.06381E+03  6.256E-01  1.000E+01  3.500E-02  1.209E+00
   1    6    8     5     1    1.0432E+01  2.2686E-01   1.0205E+01  0.000E+00  0.000E+00  0.000E+00  1.05868E+03  6.790E-01  1.542E+01  6.166E-02  1.226E+00
   1    7    7     5     2    1.0205E+01  2.7894E-01   9.9265E+00  0.000E+00  0.000E+00  0.000E+00  1.05417E+03  6.732E-01  1.519E+01  7.594E-02  1.224E+00
   1    8    7     5     3    9.9265E+00  1.9221E-01   9.7343E+00  0.000E+00  0.000E+00  0.000E+00  1.04992E+03  6.676E-01  1.497E+01  5.241E-02  1.223E+00
   1    8    6     5     4    9.7343E+00  1.3577E-01   9.5985E+00  0.000E+00  0.000E+00  0.000E+00  1.04691E+03  6.637E-01  1.482E+01  3.706E-02  1.221E+00
   1    9    6     6     1    2.3760E+01  2.5084E-01   2.3510E+01  0.000E+00  0.000E+00  0.000E+00  1.04391E+03  1.181E+00  1.200E+01  6.000E-02  1.394E+00
   1   10    7     6     2    2.3510E+01  2.5038E-01   2.3259E+01  0.000E+00  0.000E+00  0.000E+00  1.03935E+03  1.173E+00  1.200E+01  6.000E-02  1.391E+00
   1   11    7     6     3    2.3259E+01  2.4993E-01   2.3009E+01  0.000E+00  0.000E+00  0.000E+00  1.03480E+03  1.166E+00  1.200E+01  6.000E-02  1.389E+00
   1   12    7     6     4    2.3009E+01  2.4948E-01   2.2760E+01  0.000E+00  0.000E+00  0.000E+00  1.03025E+03  1.158E+00  1.200E+01  6.000E-02  1.386E+00
   1   13    7     6     5    2.2760E+01  2.4286E-03   2.2757E+01  0.000E+00  0.000E+00  0.000E+00  1.02706E+03  1.154E+00  1.200E+01  2.400E-02  3.373E-02
   1   14    9     7     1    1.5000E+02  1.3375E+00   1.4866E+02  0.000E+00  0.000E+00  0.000E+00  1.03987E+03  2.288E+00  5.529E+01  5.593E-01  7.971E-01
   1   13    8     7     2    1.4866E+02  1.8572E+00   1.4681E+02  0.000E+00  0.000E+00  0.000E+00  1.03478E+03  2.279E+00  5.526E+01  6.148E-01  1.007E+00
   1   13    7     7     3    1.4681E+02  1.5231E+00   1.4528E+02  0.000E+00  0.000E+00  0.000E+00  1.02969E+03  2.270E+00  5.522E+01  5.584E-01  9.092E-01
   1   13    6     8     1    1.6804E+02  9.7106E-01   1.6707E+02  0.000E+00  0.000E+00  0.000E+00  1.02481E+03  2.936E+00  4.257E+01  4.339E-01  7.461E-01
   1   13    5     8     2    1.6707E+02  2.3237E-01   1.6684E+02  0.000E+00  0.000E+00  0.000E+00  1.01856E+03  2.932E+00  4.252E+01  4.333E-01  1.788E-01
   1   13    4     8     3    1.6684E+02 -2.2416E+00   1.6908E+02  0.000E+00  0.000E+00  0.000E+00  1.01231E+03  2.939E+00  4.261E+01  4.342E+00 -1.721E-01
   1   13    3     8     4    1.6908E+02 -3.5825E+00   1.7266E+02  0.000E+00  0.000E+00  0.000E+00  1.00608E+03  2.958E+00  4.289E+01  4.371E+00 -2.732E-01
   1   13    2     8     5    1.7266E+02 -2.5923E+00   1.7525E+02  0.000E+00  0.000E+00  0.000E+00  9.99853E+02  2.978E+00  4.318E+01  4.400E+00 -1.964E-01
   1   13    1     8     6    1.7525E+02 -2.0007E+00   1.7725E+02  0.000E+00  0.000E+00  0.000E+00  9.94867E+02  2.992E+00  4.339E+01  2.653E+00 -2.514E-01





UNSATURATED ZONE PACKAGE VOLUMETRIC BUDGET FOR  TIME STEP    30 STRESS PERIOD   25
  ------------------------------------------------------------------------------



     CUMULATIVE VOLUMES      L**3       RATES FOR THIS TIME STEP      L**3/T
     ------------------                 ------------------------

           IN:                                      IN:
           ---                                      ---
        INFILTRATION =   861369072.7202          INFILTRATION =           0.8475

          OUT:                                     OUT:
          ----                                     ----
              UZF ET =   860087891.4153                UZF ET =           0.7500
        UZF RECHARGE =       73224.0000          UZF RECHARGE =       0.0000E+00

            IN - OUT =     1207957.3050              IN - OUT =       9.7500E-02

          STORAGE:                                 STORAGE:
          --------                                 --------
      STORAGE CHANGE =     1207951.2396        STORAGE CHANGE =       9.7500E-02

 PERCENT DISCREPANCY IS DIFFERENCE BETWEEN IN-OUT MINUS CHANGE IN STORAGE
 DIVIDED BY THE AVERAGE OF IN AND OUT TIMES 100

 PERCENT DISCREPANCY =           0.00     PERCENT DISCREPANCY =           0.00






1
  VOLUMETRIC BUDGET FOR AGRICULTURAL FIELDS AT  END OF TIME STEP   30, STRESS PERIOD  25
  ------------------------------------------------------------------------------

     CUMULATIVE VOLUMES      L**3       RATES FOR THIS TIME STEP      L**3/T
     ------------------                 ------------------------

           IN:                                      IN:
           ---                                      ---
               AG WELLS  =   807799168.0000                 AG WELLS  =           0.0000
      DIVERSION SEGMENTS =           0.0000        DIVERSION SEGMENTS =           0.0000
       IRRIGATION PONDS  =           0.0000         IRRIGATION PONDS  =           0.0000
           GW IRRIGATION =           0.0000             GW IRRIGATION =           0.0000
           SW IRRIGATION =           0.0000             SW IRRIGATION =           0.0000
        SYSTEM LOSSES GW =           0.0000          SYSTEM LOSSES GW =           0.0000
        SYSTEM LOSSES SW =           0.0000          SYSTEM LOSSES SW =           0.0000

                TOTAL IN =   807799168.0000                  TOTAL IN =           0.0000

          OUT:                                     OUT:
          ----                                     ----
               AG WELLS  =           0.0000                 AG WELLS  =           0.0000
      DIVERSION SEGMENTS =           0.0000        DIVERSION SEGMENTS =           0.0000
       IRRIGATION PONDS  =           0.0000         IRRIGATION PONDS  =           0.0000
           GW IRRIGATION =   807799168.0000             GW IRRIGATION =           0.0000
           SW IRRIGATION =           0.0000             SW IRRIGATION =           0.0000
        SYSTEM LOSSES GW =           0.0000          SYSTEM LOSSES GW =           0.0000
        SYSTEM LOSSES SW =           0.0000          SYSTEM LOSSES SW =           0.0000

               TOTAL OUT =   807799168.0000                 TOTAL OUT =           0.0000

                IN - OUT =           0.0000                  IN - OUT =           0.0000

     PERCENT DISCREPANCY =           0.00         PERCENT DISCREPANCY =           0.00



1
  VOLUMETRIC BUDGET FOR ENTIRE MODEL AT END OF TIME STEP   30, STRESS PERIOD  25
  ------------------------------------------------------------------------------

     CUMULATIVE VOLUMES      L**3       RATES FOR THIS TIME STEP      L**3/T
     ------------------                 ------------------------

           IN:                                      IN:
           ---                                      ---
             STORAGE     =  1093729536.0000               STORAGE     =           8.2557
       CONSTANT HEAD     =           0.0000         CONSTANT HEAD     =           0.0000
     HEAD DEP BOUNDS     =    18043826.0000       HEAD DEP BOUNDS     =           0.2859
      STREAM LEAKAGE     =   784797632.0000        STREAM LEAKAGE     =          11.6248
        UZF RECHARGE     =       73223.9531          UZF RECHARGE     =           0.0000
               GW ET     =           0.0000                 GW ET     =           0.0000
     SURFACE LEAKAGE     =           0.0000       SURFACE LEAKAGE     =           0.0000
           AG WELLS      =           0.0000             AG WELLS      =           0.0000

                TOTAL IN =  1896644096.0000                  TOTAL IN =          20.1664

          OUT:                                     OUT:
          ----                                     ----
             STORAGE     =   397151712.0000               STORAGE     =           9.4597
       CONSTANT HEAD     =           0.0000         CONSTANT HEAD     =           0.0000
     HEAD DEP BOUNDS     =    18585938.0000       HEAD DEP BOUNDS     =           0.2896
      STREAM LEAKAGE     =   655507520.0000        STREAM LEAKAGE     =          10.4171
        UZF RECHARGE     =           0.0000          UZF RECHARGE     =           0.0000
               GW ET     =    17603406.0000                 GW ET     =           0.0000
     SURFACE LEAKAGE     =           0.0000       SURFACE LEAKAGE     =           0.0000
           AG WELLS      =   807799168.0000             AG WELLS      =           0.0000

               TOTAL OUT =  1896647808.0000                 TOTAL OUT =          20.1664

                IN - OUT =       -3712.0000                  IN - OUT =       1.1444E-05

     PERCENT DISCREPANCY =          -0.00         PERCENT DISCREPANCY =           0.00






         TIME SUMMARY AT END OF TIME STEP   30 IN STRESS PERIOD   25
                    SECONDS     MINUTES      HOURS       DAYS        YEARS
                    -----------------------------------------------------------
   TIME STEP LENGTH  87667.      1461.1      24.352      1.0147     2.77799E-03
 STRESS PERIOD TIME 2.63000E+06  43833.      730.56      30.440     8.33397E-02
         TOTAL TIME 6.32067E+07 1.05345E+06  17557.      731.56      2.0029    
1
1
                            STRESS PERIOD NO.   26, LENGTH =   2630000.    
                            -----------------------------------------------

                              NUMBER OF TIME STEPS =    30

                               MULTIPLIER FOR DELT =     1.000

                            INITIAL TIME STEP SIZE =   87666.66    

 REUSING NON-PARAMETER GHB CELLS FROM LAST STRESS PERIOD

      2 GHB CELLS

 REUSING STREAM SEGMENT DATA FROM LAST STRESS PERIOD



            AREAL INFILTRATION RATE
 READING ON UNIT   19 WITH FORMAT: (FREE)              

            1           2           3           4           5           6           7           8           9          10
 ........................................................................................................................
   1   1.0000E-10  2.0000E-10   0.000       0.000       0.000       0.000       0.000       0.000       0.000       0.000    
   2   2.0000E-10  1.0000E-10  2.0000E-10   0.000       0.000      8.0000E-10  8.0000E-10  5.0000E-10   0.000       0.000    
   3    0.000      5.0000E-10  1.0000E-10  1.0000E-10  8.0000E-10  8.0000E-10  5.0000E-10  5.0000E-10   0.000       0.000    
   4   8.0000E-10  5.0000E-10  1.0000E-10  1.0000E-10  1.0000E-10  1.0000E-10  1.0000E-10  1.0000E-10  2.0000E-10   0.000    
   5   8.0000E-10  5.0000E-10  1.0000E-10  1.0000E-10  1.0000E-10  1.0000E-10  1.0000E-10  1.0000E-10  1.0000E-10  1.0000E-10
   6   8.0000E-10  5.0000E-10  5.0000E-10  2.0000E-10  2.0000E-10  1.0000E-10  1.0000E-10  1.0000E-10  1.0000E-10  5.0000E-10
   7   8.0000E-10  5.0000E-10  5.0000E-10  2.0000E-10  2.0000E-10  1.0000E-10  1.0000E-10  2.0000E-10  2.0000E-10   0.000    
   8    0.000      5.0000E-10  5.0000E-10  2.0000E-10  2.0000E-10  1.0000E-10  1.0000E-10  2.0000E-10  5.0000E-10   0.000    
   9    0.000      5.0000E-10  5.0000E-10  2.0000E-10  2.0000E-10  1.0000E-10  1.0000E-10  2.0000E-10  5.0000E-10   0.000    
  10    0.000      5.0000E-10  5.0000E-10  2.0000E-10  2.0000E-10  1.0000E-10  1.0000E-10  2.0000E-10  5.0000E-10  8.0000E-10
  11    0.000      1.0000E-10  1.0000E-10  1.0000E-10  1.0000E-10  1.0000E-10  1.0000E-10  2.0000E-10  5.0000E-10   0.000    
  12   1.0000E-10  1.0000E-10  1.0000E-10  1.0000E-10  1.0000E-10  1.0000E-10  1.0000E-10  1.0000E-10  2.0000E-10   0.000    
  13   1.0000E-10  1.0000E-10  2.0000E-10  2.0000E-10  2.0000E-10  2.0000E-10  2.0000E-10  1.0000E-10  1.0000E-10   0.000    
  14    0.000      2.0000E-10  5.0000E-10  5.0000E-10  5.0000E-10  5.0000E-10  5.0000E-10  2.0000E-10  1.0000E-10   0.000    
  15    0.000       0.000      8.0000E-10  8.0000E-10  8.0000E-10  8.0000E-10   0.000       0.000       0.000       0.000    

                  ET RATE =  5.000000E-10

 USING ET EXTINCTION DEPTH FROM PREVIOUS STRESS PERIOD. CURRENT PERIOD IS:      26

 USING EXTINCTION WATER CONTENT FROM PREVIOUS STRESS PERIOD. CURRENT PERIOD IS:      26

 USING AIR ENTRY PRESSURE FROM PREVIOUS STRESS PERIOD. CURRENT PERIOD IS:      26

 USING ROOT PRESSURE HEAD FROM PREVIOUS STRESS PERIOD. CURRENT PERIOD IS:      26

 USING ROOT ACTIVITY FROM PREVIOUS STRESS PERIOD. CURRENT PERIOD IS:      26

 PROCESSING AG STRESS PERIOD DATA

 READING AG STRESS PERIOD DATA

 READING IRRIGATION WELL

 NO IRRPOND OR REUSING IRRPOND DATA FROM LAST STRESS PERIOD

 END PROCESSING AG STRESS PERIOD DATA OPTIONS
 
 SOLVING FOR HEAD 
                                                   Max.-Head-Change                         Max.-Flux-Residual
  Residual-Control   Outer-Iter.   Inner-Iter.     Column Row Layer    Maximum-Head-Change  Column Row Layer    Maximum-Flux-Residual          L2-NORM 
          0                 1           2             4    7     1       0.2377518267E-01       4    7    1         0.1249116223E+01      0.2884684158E+01
          0                 2           2             4    7     1      -0.2312688950E-02       4    7    1        -0.1249124296E+00      0.2884632772E+00
          0                 3           2             4    7     1       0.1574854263E-03       4    7    1         0.8743866197E-02      0.2019192701E-01
          0                 4           1             4    7     1      -0.6266493146E-05       4    7    1        -0.3576246638E-03      0.8258275109E-03

    ------------------------------------------------
       NWT REQUIRED            4 OUTER ITERATIONS 
       AND A TOTAL OF          7 INNER ITERATIONS.
    ------------------------------------------------

 NO OUTPUT CONTROL FOR STRESS PERIOD   26   TIME STEP    1
 
 SOLVING FOR HEAD 
                                                   Max.-Head-Change                         Max.-Flux-Residual
  Residual-Control   Outer-Iter.   Inner-Iter.     Column Row Layer    Maximum-Head-Change  Column Row Layer    Maximum-Flux-Residual          L2-NORM 
          0                 1           2             4    7     1       0.2351403026E-01       4    7    1         0.1235325515E+01      0.2859503341E+01
          0                 2           2             4    7     1      -0.2287285659E-02       4    7    1        -0.1235333397E+00      0.2859455396E+00
          0                 3           2             4    7     1       0.1557555592E-03       4    7    1         0.8647330049E-02      0.2001568349E-01
          0                 4           1             4    7     1      -0.6197659966E-05       4    7    1        -0.3536763293E-03      0.8186019240E-03

    ------------------------------------------------
       NWT REQUIRED            4 OUTER ITERATIONS 
       AND A TOTAL OF          7 INNER ITERATIONS.
    ------------------------------------------------

 NO OUTPUT CONTROL FOR STRESS PERIOD   26   TIME STEP    2
 
 SOLVING FOR HEAD 
                                                   Max.-Head-Change                         Max.-Flux-Residual
  Residual-Control   Outer-Iter.   Inner-Iter.     Column Row Layer    Maximum-Head-Change  Column Row Layer    Maximum-Flux-Residual          L2-NORM 
          0                 1           2             4    7     1       0.2325691252E-01       4    7    1         0.1221748477E+01      0.2834679924E+01
          0                 2           2             4    7     1      -0.2262274839E-02       4    7    1        -0.1221756173E+00      0.2834635289E+00
          0                 3           2             4    7     1       0.1540524181E-03       4    7    1         0.8552289633E-02      0.1984200406E-01
          0                 4           1             4    7     1      -0.6129890449E-05       4    7    1        -0.3497891673E-03      0.8115157028E-03

    ------------------------------------------------
       NWT REQUIRED            4 OUTER ITERATIONS 
       AND A TOTAL OF          7 INNER ITERATIONS.
    ------------------------------------------------

 NO OUTPUT CONTROL FOR STRESS PERIOD   26   TIME STEP    3
 
 SOLVING FOR HEAD 
                                                   Max.-Head-Change                         Max.-Flux-Residual
  Residual-Control   Outer-Iter.   Inner-Iter.     Column Row Layer    Maximum-Head-Change  Column Row Layer    Maximum-Flux-Residual          L2-NORM 
          0                 1           2             4    7     1       0.2300388050E-01       4    7    1         0.1208387951E+01      0.2810213081E+01
          0                 2           2             4    7     1      -0.2237661454E-02       4    7    1        -0.1208395466E+00      0.2810171085E+00
          0                 3           2             4    7     1       0.1523763405E-03       4    7    1         0.8458764819E-02      0.1967077940E-01
          0                 4           1             4    7     1      -0.6063197721E-05       4    7    1        -0.3459639972E-03      0.8045140374E-03

    ------------------------------------------------
       NWT REQUIRED            4 OUTER ITERATIONS 
       AND A TOTAL OF          7 INNER ITERATIONS.
    ------------------------------------------------

 NO OUTPUT CONTROL FOR STRESS PERIOD   26   TIME STEP    4
 
 SOLVING FOR HEAD 
                                                   Max.-Head-Change                         Max.-Flux-Residual
  Residual-Control   Outer-Iter.   Inner-Iter.     Column Row Layer    Maximum-Head-Change  Column Row Layer    Maximum-Flux-Residual          L2-NORM 
          0                 1           2             4    7     1       0.2275498066E-01       4    7    1         0.1195246587E+01      0.2786108503E+01
          0                 2           2             4    7     1      -0.2213450026E-02       4    7    1        -0.1195253926E+00      0.2786068754E+00
          0                 3           2             4    7     1       0.1507276342E-03       4    7    1         0.8366774137E-02      0.1950206244E-01
          0                 4           1             4    7     1      -0.5997593870E-05       4    7    1        -0.3422015714E-03      0.7976339690E-03

    ------------------------------------------------
       NWT REQUIRED            4 OUTER ITERATIONS 
       AND A TOTAL OF          7 INNER ITERATIONS.
    ------------------------------------------------

 NO OUTPUT CONTROL FOR STRESS PERIOD   26   TIME STEP    5
 
 SOLVING FOR HEAD 
                                                   Max.-Head-Change                         Max.-Flux-Residual
  Residual-Control   Outer-Iter.   Inner-Iter.     Column Row Layer    Maximum-Head-Change  Column Row Layer    Maximum-Flux-Residual          L2-NORM 
          0                 1           2             4    7     1       0.2250999241E-01       4    7    1         0.1182312144E+01      0.2762348762E+01
          0                 2           2             4    7     1      -0.2189619097E-02       4    7    1        -0.1182319312E+00      0.2762311586E+00
          0                 3           2             4    7     1       0.1491048388E-03       4    7    1         0.8276231973E-02      0.1933579730E-01
          0                 4           1             4    7     1      -0.5933021677E-05       4    7    1        -0.3384983920E-03      0.7907865913E-03

    ------------------------------------------------
       NWT REQUIRED            4 OUTER ITERATIONS 
       AND A TOTAL OF          7 INNER ITERATIONS.
    ------------------------------------------------

 NO OUTPUT CONTROL FOR STRESS PERIOD   26   TIME STEP    6
 
 SOLVING FOR HEAD 
                                                   Max.-Head-Change                         Max.-Flux-Residual
  Residual-Control   Outer-Iter.   Inner-Iter.     Column Row Layer    Maximum-Head-Change  Column Row Layer    Maximum-Flux-Residual          L2-NORM 
          0                 1           2             4    7     1       0.2226882785E-01       4    7    1         0.1169580511E+01      0.2738922165E+01
          0                 2           2             4    7     1      -0.2166160212E-02       4    7    1        -0.1169587513E+00      0.2738987684E+00
          0                 3           2             4    7     1       0.1475073780E-03       4    7    1         0.8187109490E-02      0.1917254125E-01
          0                 4           1             4    7     1      -0.5869456966E-05       4    7    1        -0.3348532666E-03      0.7841057091E-03

    ------------------------------------------------
       NWT REQUIRED            4 OUTER ITERATIONS 
       AND A TOTAL OF          7 INNER ITERATIONS.
    ------------------------------------------------

 NO OUTPUT CONTROL FOR STRESS PERIOD   26   TIME STEP    7
 
 SOLVING FOR HEAD 
                                                   Max.-Head-Change                         Max.-Flux-Residual
  Residual-Control   Outer-Iter.   Inner-Iter.     Column Row Layer    Maximum-Head-Change  Column Row Layer    Maximum-Flux-Residual          L2-NORM 
          0                 1           2             4    7     1       0.2203154053E-01       4    7    1         0.1157054448E+01      0.2715825541E+01
          0                 2           2             4    7     1      -0.2143078288E-02       4    7    1        -0.1157061287E+00      0.2715792272E+00
          0                 3           2             4    7     1       0.1459355874E-03       4    7    1         0.8099426042E-02      0.1901019810E-01
          0                 4           1             4    7     1      -0.5806914357E-05       4    7    1        -0.3312670297E-03      0.7774912169E-03

    ------------------------------------------------
       NWT REQUIRED            4 OUTER ITERATIONS 
       AND A TOTAL OF          7 INNER ITERATIONS.
    ------------------------------------------------

 NO OUTPUT CONTROL FOR STRESS PERIOD   26   TIME STEP    8
 
 SOLVING FOR HEAD 
                                                   Max.-Head-Change                         Max.-Flux-Residual
  Residual-Control   Outer-Iter.   Inner-Iter.     Column Row Layer    Maximum-Head-Change  Column Row Layer    Maximum-Flux-Residual          L2-NORM 
          0                 1           2             4    7     1       0.2179791104E-01       4    7    1         0.1144722100E+01      0.2693011219E+01
          0                 2           2             4    7     1      -0.2120352275E-02       4    7    1        -0.1144728781E+00      0.2692979243E+00
          0                 3           2             4    7     1       0.1443880322E-03       4    7    1         0.8013098604E-02      0.1885052308E-01
          0                 4           1             4    7     1      -0.5745335597E-05       4    7    1        -0.3277362184E-03      0.7709820730E-03

    ------------------------------------------------
       NWT REQUIRED            4 OUTER ITERATIONS 
       AND A TOTAL OF          7 INNER ITERATIONS.
    ------------------------------------------------

 NO OUTPUT CONTROL FOR STRESS PERIOD   26   TIME STEP    9
 
 SOLVING FOR HEAD 
                                                   Max.-Head-Change                         Max.-Flux-Residual
  Residual-Control   Outer-Iter.   Inner-Iter.     Column Row Layer    Maximum-Head-Change  Column Row Layer    Maximum-Flux-Residual          L2-NORM 
          0                 1           2             4    7     1       0.2156799918E-01       4    7    1         0.1132586723E+01      0.2670521662E+01
          0                 2           2             4    7     1      -0.2097987892E-02       4    7    1        -0.1132593250E+00      0.2670491750E+00
          0                 3           2             4    7     1       0.1428651029E-03       4    7    1         0.7928150001E-02      0.1869314715E-01
          0                 4           1             4    7     1      -0.5684736573E-05       4    7    1        -0.3242618200E-03      0.7645298011E-03

    ------------------------------------------------
       NWT REQUIRED            4 OUTER ITERATIONS 
       AND A TOTAL OF          7 INNER ITERATIONS.
    ------------------------------------------------

 NO OUTPUT CONTROL FOR STRESS PERIOD   26   TIME STEP   10
 
 SOLVING FOR HEAD 
                                                   Max.-Head-Change                         Max.-Flux-Residual
  Residual-Control   Outer-Iter.   Inner-Iter.     Column Row Layer    Maximum-Head-Change  Column Row Layer    Maximum-Flux-Residual          L2-NORM 
          0                 1           2             4    7     1       0.2134158644E-01       4    7    1         0.1120636773E+01      0.2648336222E+01
          0                 2           2             4    7     1      -0.2075963885E-02       4    7    1        -0.1120643151E+00      0.2648305622E+00
          0                 3           2             4    7     1       0.1413653519E-03       4    7    1         0.7844499411E-02      0.1853768088E-01
          0                 4           1             4    7     1      -0.5625060297E-05       4    7    1        -0.3208405083E-03      0.7581675075E-03

    ------------------------------------------------
       NWT REQUIRED            4 OUTER ITERATIONS 
       AND A TOTAL OF          7 INNER ITERATIONS.
    ------------------------------------------------

 NO OUTPUT CONTROL FOR STRESS PERIOD   26   TIME STEP   11
 
 SOLVING FOR HEAD 
                                                   Max.-Head-Change                         Max.-Flux-Residual
  Residual-Control   Outer-Iter.   Inner-Iter.     Column Row Layer    Maximum-Head-Change  Column Row Layer    Maximum-Flux-Residual          L2-NORM 
          0                 1           2             4    7     1       0.2111873227E-01       4    7    1         0.1108875572E+01      0.2626462376E+01
          0                 2           2             4    7     1      -0.2054286035E-02       4    7    1        -0.1108881804E+00      0.2626434790E+00
          0                 3           2             4    7     1       0.1398891727E-03       4    7    1         0.7762170083E-02      0.1838477839E-01
          0                 4           1             4    7     1      -0.5566321619E-05       4    7    1        -0.3174732306E-03      0.7519394876E-03

    ------------------------------------------------
       NWT REQUIRED            4 OUTER ITERATIONS 
       AND A TOTAL OF          7 INNER ITERATIONS.
    ------------------------------------------------

 NO OUTPUT CONTROL FOR STRESS PERIOD   26   TIME STEP   12
 
 SOLVING FOR HEAD 
                                                   Max.-Head-Change                         Max.-Flux-Residual
  Residual-Control   Outer-Iter.   Inner-Iter.     Column Row Layer    Maximum-Head-Change  Column Row Layer    Maximum-Flux-Residual          L2-NORM 
          0                 1           2             4    7     1       0.2089922491E-01       4    7    1         0.1097291550E+01      0.2604885464E+01
          0                 2           2             4    7     1      -0.2032933744E-02       4    7    1        -0.1097297641E+00      0.2604858820E+00
          0                 3           2             4    7     1       0.1384351631E-03       4    7    1         0.7681081043E-02      0.1823375158E-01
          0                 4           1             4    7     1      -0.5508465395E-05       4    7    1        -0.3141566883E-03      0.7457539123E-03

    ------------------------------------------------
       NWT REQUIRED            4 OUTER ITERATIONS 
       AND A TOTAL OF          7 INNER ITERATIONS.
    ------------------------------------------------

 NO OUTPUT CONTROL FOR STRESS PERIOD   26   TIME STEP   13
 
 SOLVING FOR HEAD 
                                                   Max.-Head-Change                         Max.-Flux-Residual
  Residual-Control   Outer-Iter.   Inner-Iter.     Column Row Layer    Maximum-Head-Change  Column Row Layer    Maximum-Flux-Residual          L2-NORM 
          0                 1           2             4    7     1       0.2068313092E-01       4    7    1         0.1085888381E+01      0.2583604323E+01
          0                 2           2             4    7     1      -0.2011913487E-02       4    7    1        -0.1085894334E+00      0.2583578799E+00
          0                 3           2             4    7     1       0.1370037633E-03       4    7    1         0.7601257988E-02      0.1808479511E-01
          0                 4           1             4    7     1      -0.5451508202E-05       4    7    1        -0.3108919052E-03      0.7396629263E-03

    ------------------------------------------------
       NWT REQUIRED            4 OUTER ITERATIONS 
       AND A TOTAL OF          7 INNER ITERATIONS.
    ------------------------------------------------

 NO OUTPUT CONTROL FOR STRESS PERIOD   26   TIME STEP   14
 
 SOLVING FOR HEAD 
                                                   Max.-Head-Change                         Max.-Flux-Residual
  Residual-Control   Outer-Iter.   Inner-Iter.     Column Row Layer    Maximum-Head-Change  Column Row Layer    Maximum-Flux-Residual          L2-NORM 
          0                 1           2             4    7     1       0.2047051127E-01       4    7    1         0.1074669517E+01      0.2562623456E+01
          0                 2           2             4    7     1      -0.1991231193E-02       4    7    1        -0.1074675335E+00      0.2562598821E+00
          0                 3           2             4    7     1       0.1355953774E-03       4    7    1         0.7522725075E-02      0.1793794222E-01
          0                 4           1             4    7     1      -0.5395467540E-05       4    7    1        -0.3076799094E-03      0.7336520445E-03

    ------------------------------------------------
       NWT REQUIRED            4 OUTER ITERATIONS 
       AND A TOTAL OF          7 INNER ITERATIONS.
    ------------------------------------------------

 NO OUTPUT CONTROL FOR STRESS PERIOD   26   TIME STEP   15
 
 SOLVING FOR HEAD 
                                                   Max.-Head-Change                         Max.-Flux-Residual
  Residual-Control   Outer-Iter.   Inner-Iter.     Column Row Layer    Maximum-Head-Change  Column Row Layer    Maximum-Flux-Residual          L2-NORM 
          0                 1           2             4    7     1       0.2026088258E-01       4    7    1         0.1063608810E+01      0.2541917348E+01
          0                 2           2             4    7     1      -0.1970839844E-02       4    7    1        -0.1063614497E+00      0.2541893426E+00
          0                 3           2             4    7     1       0.1342068043E-03       4    7    1         0.7445299314E-02      0.1779299797E-01
          0                 4           1             4    7     1      -0.5340214811E-05       4    7    1        -0.3045131884E-03      0.7277324856E-03

    ------------------------------------------------
       NWT REQUIRED            4 OUTER ITERATIONS 
       AND A TOTAL OF          7 INNER ITERATIONS.
    ------------------------------------------------

 NO OUTPUT CONTROL FOR STRESS PERIOD   26   TIME STEP   16
 
 SOLVING FOR HEAD 
                                                   Max.-Head-Change                         Max.-Flux-Residual
  Residual-Control   Outer-Iter.   Inner-Iter.     Column Row Layer    Maximum-Head-Change  Column Row Layer    Maximum-Flux-Residual          L2-NORM 
          0                 1           2             4    7     1       0.2005459190E-01       4    7    1         0.1052725161E+01      0.2521491688E+01
          0                 2           2             4    7     1      -0.1950773197E-02       4    7    1        -0.1052730721E+00      0.2521468268E+00
          0                 3           2             4    7     1       0.1328403423E-03       4    7    1         0.7369112981E-02      0.1765003170E-01
          0                 4           1             4    7     1      -0.5285842003E-05       4    7    1        -0.3013971723E-03      0.7218694463E-03

    ------------------------------------------------
       NWT REQUIRED            4 OUTER ITERATIONS 
       AND A TOTAL OF          7 INNER ITERATIONS.
    ------------------------------------------------

 NO OUTPUT CONTROL FOR STRESS PERIOD   26   TIME STEP   17
 
 SOLVING FOR HEAD 
                                                   Max.-Head-Change                         Max.-Flux-Residual
  Residual-Control   Outer-Iter.   Inner-Iter.     Column Row Layer    Maximum-Head-Change  Column Row Layer    Maximum-Flux-Residual          L2-NORM 
          0                 1           2             4    7     1       0.1985143144E-01       4    7    1         0.1042007254E+01      0.2501349107E+01
          0                 2           2             4    7     1      -0.1931011040E-02       4    7    1        -0.1042012690E+00      0.2501326652E+00
          0                 3           2             4    7     1       0.1314946140E-03       4    7    1         0.7294086837E-02      0.1750908005E-01
          0                 4           1             4    7     1      -0.5232293969E-05       4    7    1        -0.2983285815E-03      0.7161177623E-03

    ------------------------------------------------
       NWT REQUIRED            4 OUTER ITERATIONS 
       AND A TOTAL OF          7 INNER ITERATIONS.
    ------------------------------------------------

 NO OUTPUT CONTROL FOR STRESS PERIOD   26   TIME STEP   18
 
 SOLVING FOR HEAD 
                                                   Max.-Head-Change                         Max.-Flux-Residual
  Residual-Control   Outer-Iter.   Inner-Iter.     Column Row Layer    Maximum-Head-Change  Column Row Layer    Maximum-Flux-Residual          L2-NORM 
          0                 1           2             4    7     1       0.1965133186E-01       4    7    1         0.1031451645E+01      0.2481468503E+01
          0                 2           2             4    7     1      -0.1911546629E-02       4    7    1        -0.1031456960E+00      0.2481446645E+00
          0                 3           2             4    7     1       0.1301691613E-03       4    7    1         0.7220196801E-02      0.1736988497E-01
          0                 4           1             4    7     1      -0.5179552979E-05       4    7    1        -0.2953064679E-03      0.7104096723E-03

    ------------------------------------------------
       NWT REQUIRED            4 OUTER ITERATIONS 
       AND A TOTAL OF          7 INNER ITERATIONS.
    ------------------------------------------------

 NO OUTPUT CONTROL FOR STRESS PERIOD   26   TIME STEP   19
 
 SOLVING FOR HEAD 
                                                   Max.-Head-Change                         Max.-Flux-Residual
  Residual-Control   Outer-Iter.   Inner-Iter.     Column Row Layer    Maximum-Head-Change  Column Row Layer    Maximum-Flux-Residual          L2-NORM 
          0                 1           2             4    7     1       0.1945409847E-01       4    7    1         0.1021047408E+01      0.2461854510E+01
          0                 2           2             4    7     1      -0.1892361023E-02       4    7    1        -0.1021052605E+00      0.2461833151E+00
          0                 3           2             4    7     1       0.1288626945E-03       4    7    1         0.7147366393E-02      0.1723260567E-01
          0                 4           1             4    7     1      -0.5127567801E-05       4    7    1        -0.2923277143E-03      0.7047978713E-03

    ------------------------------------------------
       NWT REQUIRED            4 OUTER ITERATIONS 
       AND A TOTAL OF          7 INNER ITERATIONS.
    ------------------------------------------------

 NO OUTPUT CONTROL FOR STRESS PERIOD   26   TIME STEP   20
 
 SOLVING FOR HEAD 
                                                   Max.-Head-Change                         Max.-Flux-Residual
  Residual-Control   Outer-Iter.   Inner-Iter.     Column Row Layer    Maximum-Head-Change  Column Row Layer    Maximum-Flux-Residual          L2-NORM 
          0                 1           2             4    7     1       0.1925993944E-01       4    7    1         0.1010806435E+01      0.2442499616E+01
          0                 2           2             4    7     1      -0.1873479264E-02       4    7    1        -0.1010811517E+00      0.2442607746E+00
          0                 3           2             4    7     1       0.1275769182E-03       4    7    1         0.7075678871E-02      0.1709804758E-01
          0                 4           1             4    7     1      -0.5076405211E-05       4    7    1        -0.2893956785E-03      0.6992972025E-03

    ------------------------------------------------
       NWT REQUIRED            4 OUTER ITERATIONS 
       AND A TOTAL OF          7 INNER ITERATIONS.
    ------------------------------------------------

 NO OUTPUT CONTROL FOR STRESS PERIOD   26   TIME STEP   21
 
 SOLVING FOR HEAD 
                                                   Max.-Head-Change                         Max.-Flux-Residual
  Residual-Control   Outer-Iter.   Inner-Iter.     Column Row Layer    Maximum-Head-Change  Column Row Layer    Maximum-Flux-Residual          L2-NORM 
          0                 1           2             4    7     1       0.1906857459E-01       4    7    1         0.1000717279E+01      0.2423392836E+01
          0                 2           2             4    7     1      -0.1854859739E-02       4    7    1        -0.1000722251E+00      0.2423372636E+00
          0                 3           2             4    7     1       0.1263089995E-03       4    7    1         0.7005054081E-02      0.1696340332E-01
          0                 4           1             4    7     1      -0.5025953533E-05       4    7    1        -0.2865071338E-03      0.6937957054E-03

    ------------------------------------------------
       NWT REQUIRED            4 OUTER ITERATIONS 
       AND A TOTAL OF          7 INNER ITERATIONS.
    ------------------------------------------------

 NO OUTPUT CONTROL FOR STRESS PERIOD   26   TIME STEP   22
 
 SOLVING FOR HEAD 
                                                   Max.-Head-Change                         Max.-Flux-Residual
  Residual-Control   Outer-Iter.   Inner-Iter.     Column Row Layer    Maximum-Head-Change  Column Row Layer    Maximum-Flux-Residual          L2-NORM 
          0                 1           2             4    7     1       0.1887997109E-01       4    7    1         0.9907735061E+00      0.2404472847E+01
          0                 2           2             4    7     1      -0.1836513601E-02       4    7    1        -0.9907783708E-01      0.2404452874E+00
          0                 3           2             4    7     1       0.1250596969E-03       4    7    1         0.6935446999E-02      0.1683099633E-01
          0                 4           1             4    7     1      -0.4976242702E-05       4    7    1        -0.2836601866E-03      0.6884026897E-03

    ------------------------------------------------
       NWT REQUIRED            4 OUTER ITERATIONS 
       AND A TOTAL OF          7 INNER ITERATIONS.
    ------------------------------------------------

 NO OUTPUT CONTROL FOR STRESS PERIOD   26   TIME STEP   23
 
 SOLVING FOR HEAD 
                                                   Max.-Head-Change                         Max.-Flux-Residual
  Residual-Control   Outer-Iter.   Inner-Iter.     Column Row Layer    Maximum-Head-Change  Column Row Layer    Maximum-Flux-Residual          L2-NORM 
          0                 1           2             4    7     1       0.1869407206E-01       4    7    1         0.9809726496E+00      0.2385805659E+01
          0                 2           2             4    7     1      -0.1818430538E-02       4    7    1        -0.9809774092E-01      0.2385786379E+00
          0                 3           2             4    7     1       0.1238283089E-03       4    7    1         0.6866840317E-02      0.1670030419E-01
          0                 4           1             4    7     1      -0.4927244626E-05       4    7    1        -0.2808541765E-03      0.6830122973E-03

    ------------------------------------------------
       NWT REQUIRED            4 OUTER ITERATIONS 
       AND A TOTAL OF          7 INNER ITERATIONS.
    ------------------------------------------------

 NO OUTPUT CONTROL FOR STRESS PERIOD   26   TIME STEP   24
 
 SOLVING FOR HEAD 
                                                   Max.-Head-Change                         Max.-Flux-Residual
  Residual-Control   Outer-Iter.   Inner-Iter.     Column Row Layer    Maximum-Head-Change  Column Row Layer    Maximum-Flux-Residual          L2-NORM 
          0                 1           2             4    7     1       0.1851095942E-01       4    7    1         0.9713193455E+00      0.2367377948E+01
          0                 2           2             4    7     1      -0.1800618520E-02       4    7    1        -0.9713240028E-01      0.2367358990E+00
          0                 3           2             4    7     1       0.1226153785E-03       4    7    1         0.6799266562E-02      0.1657131649E-01
          0                 4           1             4    7     1      -0.4878981293E-05       4    7    1        -0.2780904217E-03      0.6777634406E-03

    ------------------------------------------------
       NWT REQUIRED            4 OUTER ITERATIONS 
       AND A TOTAL OF          7 INNER ITERATIONS.
    ------------------------------------------------

 NO OUTPUT CONTROL FOR STRESS PERIOD   26   TIME STEP   25
 
 SOLVING FOR HEAD 
                                                   Max.-Head-Change                         Max.-Flux-Residual
  Residual-Control   Outer-Iter.   Inner-Iter.     Column Row Layer    Maximum-Head-Change  Column Row Layer    Maximum-Flux-Residual          L2-NORM 
          0                 1           2             4    7     1       0.1833031163E-01       4    7    1         0.9617958505E+00      0.2349186949E+01
          0                 2           2             4    7     1      -0.1783046267E-02       4    7    1        -0.9618004078E-01      0.2349168082E+00
          0                 3           1             4    7     1       0.1214187773E-03       4    7    1         0.6732601441E-02      0.1644397559E-01
          0                 4           1             4    7     1      -0.4831370274E-05       4    7    1        -0.2753637987E-03      0.6725446543E-03

    ------------------------------------------------
       NWT REQUIRED            4 OUTER ITERATIONS 
       AND A TOTAL OF          6 INNER ITERATIONS.
    ------------------------------------------------

 NO OUTPUT CONTROL FOR STRESS PERIOD   26   TIME STEP   26
 
 SOLVING FOR HEAD 
                                                   Max.-Head-Change                         Max.-Flux-Residual
  Residual-Control   Outer-Iter.   Inner-Iter.     Column Row Layer    Maximum-Head-Change  Column Row Layer    Maximum-Flux-Residual          L2-NORM 
          0                 1           2             4    7     1       0.1815235449E-01       4    7    1         0.9524148149E+00      0.2331236501E+01
          0                 2           2             4    7     1      -0.1765735745E-02       4    7    1        -0.9524192746E-01      0.2331217850E+00
          0                 3           1             4    7     1       0.1202399966E-03       4    7    1         0.6666933585E-02      0.1631832900E-01
          0                 4           1             4    7     1      -0.4784465563E-05       4    7    1        -0.2726779840E-03      0.6674288219E-03

    ------------------------------------------------
       NWT REQUIRED            4 OUTER ITERATIONS 
       AND A TOTAL OF          6 INNER ITERATIONS.
    ------------------------------------------------

 NO OUTPUT CONTROL FOR STRESS PERIOD   26   TIME STEP   27
 
 SOLVING FOR HEAD 
                                                   Max.-Head-Change                         Max.-Flux-Residual
  Residual-Control   Outer-Iter.   Inner-Iter.     Column Row Layer    Maximum-Head-Change  Column Row Layer    Maximum-Flux-Residual          L2-NORM 
          0                 1           2             4    7     1       0.1797703409E-01       4    7    1         0.9431732854E+00      0.2313519411E+01
          0                 2           2             4    7     1      -0.1748681709E-02       4    7    1        -0.9431776501E-01      0.2313501072E+00
          0                 3           1             4    7     1       0.1190786814E-03       4    7    1         0.6602242271E-02      0.1619431964E-01
          0                 4           1             4    7     1      -0.4738255762E-05       4    7    1        -0.2700321099E-03      0.6623397321E-03

    ------------------------------------------------
       NWT REQUIRED            4 OUTER ITERATIONS 
       AND A TOTAL OF          6 INNER ITERATIONS.
    ------------------------------------------------

 NO OUTPUT CONTROL FOR STRESS PERIOD   26   TIME STEP   28
 
 SOLVING FOR HEAD 
                                                   Max.-Head-Change                         Max.-Flux-Residual
  Residual-Control   Outer-Iter.   Inner-Iter.     Column Row Layer    Maximum-Head-Change  Column Row Layer    Maximum-Flux-Residual          L2-NORM 
          0                 1           2             4    7     1       0.1780403053E-01       4    7    1         0.9340538036E+00      0.2296031894E+01
          0                 2           2             4    7     1      -0.1731853042E-02       4    7    1        -0.9340580754E-01      0.2296013695E+00
          0                 3           1             4    7     1       0.1179327126E-03       4    7    1         0.6538405305E-02      0.1607189662E-01
          0                 4           1             4    7     1      -0.4692656367E-05       4    7    1        -0.2674211601E-03      0.6573178599E-03

    ------------------------------------------------
       NWT REQUIRED            4 OUTER ITERATIONS 
       AND A TOTAL OF          6 INNER ITERATIONS.
    ------------------------------------------------

 NO OUTPUT CONTROL FOR STRESS PERIOD   26   TIME STEP   29
 
 SOLVING FOR HEAD 
                                                   Max.-Head-Change                         Max.-Flux-Residual
  Residual-Control   Outer-Iter.   Inner-Iter.     Column Row Layer    Maximum-Head-Change  Column Row Layer    Maximum-Flux-Residual          L2-NORM 
          0                 1           2             4    7     1       0.1763370940E-01       4    7    1         0.9250764410E+00      0.2278766592E+01
          0                 2           2             4    7     1      -0.1715285305E-02       4    7    1        -0.9250806220E-01      0.2278748687E+00
          0                 3           1             4    7     1       0.1168045127E-03       4    7    1         0.6475563198E-02      0.1595103188E-01
          0                 4           1             4    7     1      -0.4647764317E-05       4    7    1        -0.2648509239E-03      0.6523772106E-03

    ------------------------------------------------
       NWT REQUIRED            4 OUTER ITERATIONS 
       AND A TOTAL OF          6 INNER ITERATIONS.
    ------------------------------------------------

 NO OUTPUT CONTROL FOR STRESS PERIOD   26   TIME STEP   30



 STREAM LISTING     PERIOD     26   STEP       30

 LAYER ROW COL. STREAM  RCH.  FLOW INTO     FLOW TO   FLOW OUT OF   OVRLND.     DIRECT     STREAM       STREAM     STREAM     STREAM   STREAMBED  STREAMBED
                SEG.NO.  NO.  STRM. RCH.    AQUIFER    STRM. RCH.    RUNOFF     PRECIP       ET          HEAD       DEPTH      WIDTH   CONDCTNC.   GRADIENT

   1    1    1     1     1    1.9000E+01  2.1427E-01   1.8786E+01  0.000E+00  0.000E+00  0.000E+00  1.09413E+03  1.082E+00  1.166E+01  5.249E-02  1.361E+00
   1    2    2     1     2    1.8786E+01  3.3054E-01   1.8455E+01  0.000E+00  0.000E+00  0.000E+00  1.08914E+03  1.077E+00  1.158E+01  8.107E-02  1.359E+00
   1    3    3     1     3    1.8455E+01  2.8064E-01   1.8175E+01  0.000E+00  0.000E+00  0.000E+00  1.08349E+03  1.072E+00  1.149E+01  6.892E-02  1.357E+00
   1    3    4     1     4    1.8175E+01  2.5740E-01   1.7917E+01  0.000E+00  0.000E+00  0.000E+00  1.07848E+03  1.068E+00  1.140E+01  6.328E-02  1.356E+00
   1    4    5     2     1    1.5917E+01  3.0542E-01   1.5612E+01  0.000E+00  0.000E+00  0.000E+00  1.07285E+03  9.157E-01  1.200E+01  7.800E-02  1.305E+00
   1    5    6     2     2    1.5612E+01  2.3438E-01   1.5377E+01  0.000E+00  0.000E+00  0.000E+00  1.06742E+03  9.063E-01  1.200E+01  6.000E-02  1.302E+00
   1    6    6     2     3    1.5377E+01  2.3388E-01   1.5143E+01  0.000E+00  0.000E+00  0.000E+00  1.06269E+03  8.980E-01  1.200E+01  6.000E-02  1.299E+00
   1    7    6     2     4    1.5143E+01  2.3338E-01   1.4910E+01  0.000E+00  0.000E+00  0.000E+00  1.05797E+03  8.897E-01  1.200E+01  6.000E-02  1.297E+00
   1    8    6     2     5    1.4910E+01  2.3289E-01   1.4677E+01  0.000E+00  0.000E+00  0.000E+00  1.05324E+03  8.814E-01  1.200E+01  6.000E-02  1.294E+00
   1    3    5     3     1    2.0000E+00  2.8252E-01   1.7175E+00  0.000E+00  0.000E+00  0.000E+00  1.07555E+03  1.909E+00  9.636E+00  7.227E-02  1.955E+00
   1    3    6     3     2    1.7175E+00  2.4905E-01   1.4684E+00  0.000E+00  0.000E+00  0.000E+00  1.07264E+03  1.727E+00  8.909E+00  6.682E-02  1.864E+00
   1    3    7     3     3    1.4684E+00  1.9718E-01   1.2712E+00  0.000E+00  0.000E+00  0.000E+00  1.06987E+03  1.555E+00  8.218E+00  5.547E-02  1.777E+00
   1    4    8     3     4    1.2712E+00  2.2567E-01   1.0456E+00  0.000E+00  0.000E+00  0.000E+00  1.06682E+03  1.364E+00  7.455E+00  6.709E-02  1.682E+00
   1    5    8     3     5    1.0456E+00  1.5790E-01   8.8768E-01  0.000E+00  0.000E+00  0.000E+00  1.06362E+03  1.164E+00  6.655E+00  4.991E-02  1.582E+00
   1    6    8     3     6    8.8768E-01  5.5980E-02   8.3170E-01  0.000E+00  0.000E+00  0.000E+00  1.06158E+03  1.036E+00  6.145E+00  1.844E-02  1.518E+00
   1    5   10     4     1    1.0000E+01  9.0919E-02   9.9091E+00  0.000E+00  0.000E+00  0.000E+00  1.07836E+03  6.368E-01  1.000E+01  2.500E-02  1.212E+00
   1    5    9     4     2    9.9091E+00  1.8158E-01   9.7275E+00  0.000E+00  0.000E+00  0.000E+00  1.07154E+03  6.315E-01  1.000E+01  5.000E-02  1.211E+00
   1    6    8     4     3    9.7275E+00  1.2689E-01   9.6006E+00  0.000E+00  0.000E+00  0.000E+00  1.06381E+03  6.256E-01  1.000E+01  3.500E-02  1.209E+00
   1    6    8     5     1    1.0432E+01  2.2686E-01   1.0205E+01  0.000E+00  0.000E+00  0.000E+00  1.05868E+03  6.790E-01  1.542E+01  6.166E-02  1.226E+00
   1    7    7     5     2    1.0205E+01  2.7894E-01   9.9265E+00  0.000E+00  0.000E+00  0.000E+00  1.05417E+03  6.732E-01  1.519E+01  7.594E-02  1.224E+00
   1    8    7     5     3    9.9265E+00  1.9221E-01   9.7343E+00  0.000E+00  0.000E+00  0.000E+00  1.04992E+03  6.676E-01  1.497E+01  5.241E-02  1.223E+00
   1    8    6     5     4    9.7343E+00  1.3577E-01   9.5985E+00  0.000E+00  0.000E+00  0.000E+00  1.04691E+03  6.637E-01  1.482E+01  3.706E-02  1.221E+00
   1    9    6     6     1    2.4276E+01  2.5176E-01   2.4024E+01  0.000E+00  0.000E+00  0.000E+00  1.04392E+03  1.196E+00  1.200E+01  6.000E-02  1.399E+00
   1   10    7     6     2    2.4024E+01  2.5131E-01   2.3773E+01  0.000E+00  0.000E+00  0.000E+00  1.03937E+03  1.188E+00  1.200E+01  6.000E-02  1.396E+00
   1   11    7     6     3    2.3773E+01  2.5086E-01   2.3522E+01  0.000E+00  0.000E+00  0.000E+00  1.03482E+03  1.181E+00  1.200E+01  6.000E-02  1.394E+00
   1   12    7     6     4    2.3522E+01  2.5041E-01   2.3271E+01  0.000E+00  0.000E+00  0.000E+00  1.03026E+03  1.173E+00  1.200E+01  6.000E-02  1.391E+00
   1   13    7     6     5    2.3271E+01  3.5239E-03   2.3268E+01  0.000E+00  0.000E+00  0.000E+00  1.02708E+03  1.170E+00  1.200E+01  2.400E-02  4.894E-02
   1   14    9     7     1    1.5000E+02  1.3388E+00   1.4866E+02  0.000E+00  0.000E+00  0.000E+00  1.03987E+03  2.288E+00  5.529E+01  5.593E-01  7.979E-01
   1   13    8     7     2    1.4866E+02  1.8648E+00   1.4680E+02  0.000E+00  0.000E+00  0.000E+00  1.03478E+03  2.279E+00  5.526E+01  6.148E-01  1.011E+00
   1   13    7     7     3    1.4680E+02  1.5399E+00   1.4526E+02  0.000E+00  0.000E+00  0.000E+00  1.02969E+03  2.270E+00  5.522E+01  5.584E-01  9.192E-01
   1   13    6     8     1    1.6852E+02  9.9112E-01   1.6753E+02  0.000E+00  0.000E+00  0.000E+00  1.02481E+03  2.939E+00  4.262E+01  4.343E-01  7.607E-01
   1   13    5     8     2    1.6753E+02  2.5023E-01   1.6728E+02  0.000E+00  0.000E+00  0.000E+00  1.01856E+03  2.935E+00  4.256E+01  4.337E-01  1.923E-01
   1   13    4     8     3    1.6728E+02 -2.1658E+00   1.6945E+02  0.000E+00  0.000E+00  0.000E+00  1.01232E+03  2.942E+00  4.265E+01  4.346E+00 -1.661E-01
   1   13    3     8     4    1.6945E+02 -3.5318E+00   1.7298E+02  0.000E+00  0.000E+00  0.000E+00  1.00609E+03  2.960E+00  4.292E+01  4.374E+00 -2.692E-01
   1   13    2     8     5    1.7298E+02 -2.5579E+00   1.7554E+02  0.000E+00  0.000E+00  0.000E+00  9.99855E+02  2.980E+00  4.321E+01  4.403E+00 -1.937E-01
   1   13    1     8     6    1.7554E+02 -1.9825E+00   1.7752E+02  0.000E+00  0.000E+00  0.000E+00  9.94869E+02  2.994E+00  4.342E+01  2.655E+00 -2.489E-01





UNSATURATED ZONE PACKAGE VOLUMETRIC BUDGET FOR  TIME STEP    30 STRESS PERIOD   26
  ------------------------------------------------------------------------------



     CUMULATIVE VOLUMES      L**3       RATES FOR THIS TIME STEP      L**3/T
     ------------------                 ------------------------

           IN:                                      IN:
           ---                                      ---
        INFILTRATION =   863597997.5930          INFILTRATION =           0.8475

          OUT:                                     OUT:
          ----                                     ----
              UZF ET =   862060391.2692                UZF ET =           0.7500
        UZF RECHARGE =       73224.0000          UZF RECHARGE =       0.0000E+00

            IN - OUT =     1464382.3238              IN - OUT =       9.7500E-02

          STORAGE:                                 STORAGE:
          --------                                 --------
      STORAGE CHANGE =     1464376.2774        STORAGE CHANGE =       9.7500E-02

 PERCENT DISCREPANCY IS DIFFERENCE BETWEEN IN-OUT MINUS CHANGE IN STORAGE
 DIVIDED BY THE AVERAGE OF IN AND OUT TIMES 100

 PERCENT DISCREPANCY =           0.00     PERCENT DISCREPANCY =           0.00






1
  VOLUMETRIC BUDGET FOR AGRICULTURAL FIELDS AT  END OF TIME STEP   30, STRESS PERIOD  26
  ------------------------------------------------------------------------------

     CUMULATIVE VOLUMES      L**3       RATES FOR THIS TIME STEP      L**3/T
     ------------------                 ------------------------

           IN:                                      IN:
           ---                                      ---
               AG WELLS  =   807799168.0000                 AG WELLS  =           0.0000
      DIVERSION SEGMENTS =           0.0000        DIVERSION SEGMENTS =           0.0000
       IRRIGATION PONDS  =           0.0000         IRRIGATION PONDS  =           0.0000
           GW IRRIGATION =           0.0000             GW IRRIGATION =           0.0000
           SW IRRIGATION =           0.0000             SW IRRIGATION =           0.0000
        SYSTEM LOSSES GW =           0.0000          SYSTEM LOSSES GW =           0.0000
        SYSTEM LOSSES SW =           0.0000          SYSTEM LOSSES SW =           0.0000

                TOTAL IN =   807799168.0000                  TOTAL IN =           0.0000

          OUT:                                     OUT:
          ----                                     ----
               AG WELLS  =           0.0000                 AG WELLS  =           0.0000
      DIVERSION SEGMENTS =           0.0000        DIVERSION SEGMENTS =           0.0000
       IRRIGATION PONDS  =           0.0000         IRRIGATION PONDS  =           0.0000
           GW IRRIGATION =   807799168.0000             GW IRRIGATION =           0.0000
           SW IRRIGATION =           0.0000             SW IRRIGATION =           0.0000
        SYSTEM LOSSES GW =           0.0000          SYSTEM LOSSES GW =           0.0000
        SYSTEM LOSSES SW =           0.0000          SYSTEM LOSSES SW =           0.0000

               TOTAL OUT =   807799168.0000                 TOTAL OUT =           0.0000

                IN - OUT =           0.0000                  IN - OUT =           0.0000

     PERCENT DISCREPANCY =           0.00         PERCENT DISCREPANCY =           0.00



1
  VOLUMETRIC BUDGET FOR ENTIRE MODEL AT END OF TIME STEP   30, STRESS PERIOD  26
  ------------------------------------------------------------------------------

     CUMULATIVE VOLUMES      L**3       RATES FOR THIS TIME STEP      L**3/T
     ------------------                 ------------------------

           IN:                                      IN:
           ---                                      ---
             STORAGE     =  1112885632.0000               STORAGE     =           6.5497
       CONSTANT HEAD     =           0.0000         CONSTANT HEAD     =           0.0000
     HEAD DEP BOUNDS     =    18795796.0000       HEAD DEP BOUNDS     =           0.2860
      STREAM LEAKAGE     =   815537856.0000        STREAM LEAKAGE     =          11.7170
        UZF RECHARGE     =       73223.9531          UZF RECHARGE     =           0.0000
               GW ET     =           0.0000                 GW ET     =           0.0000
     SURFACE LEAKAGE     =           0.0000       SURFACE LEAKAGE     =           0.0000
           AG WELLS      =           0.0000             AG WELLS      =           0.0000

                TOTAL IN =  1947292416.0000                  TOTAL IN =          18.5526

          OUT:                                     OUT:
          ----                                     ----
             STORAGE     =   419962688.0000               STORAGE     =           8.0251
       CONSTANT HEAD     =           0.0000         CONSTANT HEAD     =           0.0000
     HEAD DEP BOUNDS     =    19347308.0000       HEAD DEP BOUNDS     =           0.2894
      STREAM LEAKAGE     =   682584128.0000        STREAM LEAKAGE     =          10.2381
        UZF RECHARGE     =           0.0000          UZF RECHARGE     =           0.0000
               GW ET     =    17603406.0000                 GW ET     =           0.0000
     SURFACE LEAKAGE     =           0.0000       SURFACE LEAKAGE     =           0.0000
           AG WELLS      =   807799168.0000             AG WELLS      =           0.0000

               TOTAL OUT =  1947296768.0000                 TOTAL OUT =          18.5526

                IN - OUT =       -4352.0000                  IN - OUT =       9.5367E-06

     PERCENT DISCREPANCY =          -0.00         PERCENT DISCREPANCY =           0.00






         TIME SUMMARY AT END OF TIME STEP   30 IN STRESS PERIOD   26
                    SECONDS     MINUTES      HOURS       DAYS        YEARS
                    -----------------------------------------------------------
   TIME STEP LENGTH  87667.      1461.1      24.352      1.0147     2.77799E-03
 STRESS PERIOD TIME 2.63000E+06  43833.      730.56      30.440     8.33397E-02
         TOTAL TIME 6.58368E+07 1.09728E+06  18288.      762.00      2.0862    
1
1
                            STRESS PERIOD NO.   27, LENGTH =   2630000.    
                            -----------------------------------------------

                              NUMBER OF TIME STEPS =    30

                               MULTIPLIER FOR DELT =     1.000

                            INITIAL TIME STEP SIZE =   87666.66    

 REUSING NON-PARAMETER GHB CELLS FROM LAST STRESS PERIOD

      2 GHB CELLS

 REUSING STREAM SEGMENT DATA FROM LAST STRESS PERIOD



            AREAL INFILTRATION RATE
 READING ON UNIT   19 WITH FORMAT: (FREE)              

            1           2           3           4           5           6           7           8           9          10
 ........................................................................................................................
   1   1.0000E-10  2.0000E-10   0.000       0.000       0.000       0.000       0.000       0.000       0.000       0.000    
   2   2.0000E-10  1.0000E-10  2.0000E-10   0.000       0.000      8.0000E-10  8.0000E-10  5.0000E-10   0.000       0.000    
   3    0.000      5.0000E-10  1.0000E-10  1.0000E-10  8.0000E-10  8.0000E-10  5.0000E-10  5.0000E-10   0.000       0.000    
   4   8.0000E-10  5.0000E-10  1.0000E-10  1.0000E-10  1.0000E-10  1.0000E-10  1.0000E-10  1.0000E-10  2.0000E-10   0.000    
   5   8.0000E-10  5.0000E-10  1.0000E-10  1.0000E-10  1.0000E-10  1.0000E-10  1.0000E-10  1.0000E-10  1.0000E-10  1.0000E-10
   6   8.0000E-10  5.0000E-10  5.0000E-10  2.0000E-10  2.0000E-10  1.0000E-10  1.0000E-10  1.0000E-10  1.0000E-10  5.0000E-10
   7   8.0000E-10  5.0000E-10  5.0000E-10  2.0000E-10  2.0000E-10  1.0000E-10  1.0000E-10  2.0000E-10  2.0000E-10   0.000    
   8    0.000      5.0000E-10  5.0000E-10  2.0000E-10  2.0000E-10  1.0000E-10  1.0000E-10  2.0000E-10  5.0000E-10   0.000    
   9    0.000      5.0000E-10  5.0000E-10  2.0000E-10  2.0000E-10  1.0000E-10  1.0000E-10  2.0000E-10  5.0000E-10   0.000    
  10    0.000      5.0000E-10  5.0000E-10  2.0000E-10  2.0000E-10  1.0000E-10  1.0000E-10  2.0000E-10  5.0000E-10  8.0000E-10
  11    0.000      1.0000E-10  1.0000E-10  1.0000E-10  1.0000E-10  1.0000E-10  1.0000E-10  2.0000E-10  5.0000E-10   0.000    
  12   1.0000E-10  1.0000E-10  1.0000E-10  1.0000E-10  1.0000E-10  1.0000E-10  1.0000E-10  1.0000E-10  2.0000E-10   0.000    
  13   1.0000E-10  1.0000E-10  2.0000E-10  2.0000E-10  2.0000E-10  2.0000E-10  2.0000E-10  1.0000E-10  1.0000E-10   0.000    
  14    0.000      2.0000E-10  5.0000E-10  5.0000E-10  5.0000E-10  5.0000E-10  5.0000E-10  2.0000E-10  1.0000E-10   0.000    
  15    0.000       0.000      8.0000E-10  8.0000E-10  8.0000E-10  8.0000E-10   0.000       0.000       0.000       0.000    

                  ET RATE =  5.000000E-10

 USING ET EXTINCTION DEPTH FROM PREVIOUS STRESS PERIOD. CURRENT PERIOD IS:      27

 USING EXTINCTION WATER CONTENT FROM PREVIOUS STRESS PERIOD. CURRENT PERIOD IS:      27

 USING AIR ENTRY PRESSURE FROM PREVIOUS STRESS PERIOD. CURRENT PERIOD IS:      27

 USING ROOT PRESSURE HEAD FROM PREVIOUS STRESS PERIOD. CURRENT PERIOD IS:      27

 USING ROOT ACTIVITY FROM PREVIOUS STRESS PERIOD. CURRENT PERIOD IS:      27

 PROCESSING AG STRESS PERIOD DATA

 READING AG STRESS PERIOD DATA

 READING IRRIGATION WELL

 NO IRRPOND OR REUSING IRRPOND DATA FROM LAST STRESS PERIOD

 END PROCESSING AG STRESS PERIOD DATA OPTIONS
 
 SOLVING FOR HEAD 
                                                   Max.-Head-Change                         Max.-Flux-Residual
  Residual-Control   Outer-Iter.   Inner-Iter.     Column Row Layer    Maximum-Head-Change  Column Row Layer    Maximum-Flux-Residual          L2-NORM 
          0                 1           2             4    7     1       0.1746560721E-01       4    7    1         0.9162161624E+00      0.2261718981E+01
          0                 2           2             4    7     1      -0.1698933414E-02       4    7    1        -0.9162202548E-01      0.2261701460E+00
          0                 3           1             4    7     1       0.1156910108E-03       4    7    1         0.6413540686E-02      0.1583172992E-01
          0                 4           1             4    7     1      -0.4603456884E-05       4    7    1        -0.2623142018E-03      0.6475329193E-03

    ------------------------------------------------
       NWT REQUIRED            4 OUTER ITERATIONS 
       AND A TOTAL OF          6 INNER ITERATIONS.
    ------------------------------------------------

 NO OUTPUT CONTROL FOR STRESS PERIOD   27   TIME STEP    1
 
 SOLVING FOR HEAD 
                                                   Max.-Head-Change                         Max.-Flux-Residual
  Residual-Control   Outer-Iter.   Inner-Iter.     Column Row Layer    Maximum-Head-Change  Column Row Layer    Maximum-Flux-Residual          L2-NORM 
          0                 1           2             4    7     1       0.1729995703E-01       4    7    1         0.9074855961E+00      0.2244890085E+01
          0                 2           2             4    7     1      -0.1682820040E-02       4    7    1        -0.9074896022E-01      0.2244872518E+00
          0                 3           1             4    7     1       0.1145937509E-03       4    7    1         0.6352426174E-02      0.1571391030E-01
          0                 4           1             4    7     1      -0.4559796238E-05       4    7    1        -0.2598146057E-03      0.6426903673E-03

    ------------------------------------------------
       NWT REQUIRED            4 OUTER ITERATIONS 
       AND A TOTAL OF          6 INNER ITERATIONS.
    ------------------------------------------------

 NO OUTPUT CONTROL FOR STRESS PERIOD   27   TIME STEP    2
 
 SOLVING FOR HEAD 
                                                   Max.-Head-Change                         Max.-Flux-Residual
  Residual-Control   Outer-Iter.   Inner-Iter.     Column Row Layer    Maximum-Head-Change  Column Row Layer    Maximum-Flux-Residual          L2-NORM 
          0                 1           2             4    7     1       0.1713671108E-01       4    7    1         0.8988821631E+00      0.2228275524E+01
          0                 2           2             4    7     1      -0.1666940535E-02       4    7    1        -0.8988860850E-01      0.2228258571E+00
          0                 3           1             4    7     1       0.1135124165E-03       4    7    1         0.6292201601E-02      0.1559765808E-01
          0                 4           1             4    7     1      -0.4516768564E-05       4    7    1        -0.2573514143E-03      0.6379387399E-03

    ------------------------------------------------
       NWT REQUIRED            4 OUTER ITERATIONS 
       AND A TOTAL OF          6 INNER ITERATIONS.
    ------------------------------------------------

 NO OUTPUT CONTROL FOR STRESS PERIOD   27   TIME STEP    3
 
 SOLVING FOR HEAD 
                                                   Max.-Head-Change                         Max.-Flux-Residual
  Residual-Control   Outer-Iter.   Inner-Iter.     Column Row Layer    Maximum-Head-Change  Column Row Layer    Maximum-Flux-Residual          L2-NORM 
          0                 1           2             4    7     1       0.1697568729E-01       4    7    1         0.8903960523E+00      0.2211868637E+01
          0                 2           2             4    7     1      -0.1651277189E-02       4    7    1        -0.8903998919E-01      0.2211851319E+00
          0                 3           1             4    7     1       0.1124458019E-03       4    7    1         0.6232798296E-02      0.1548263630E-01
          0                 4           1             4    7     1      -0.4474327004E-05       4    7    1        -0.2549218214E-03      0.6345150626E-03

    ------------------------------------------------
       NWT REQUIRED            4 OUTER ITERATIONS 
       AND A TOTAL OF          6 INNER ITERATIONS.
    ------------------------------------------------

 NO OUTPUT CONTROL FOR STRESS PERIOD   27   TIME STEP    4
 
 SOLVING FOR HEAD 
                                                   Max.-Head-Change                         Max.-Flux-Residual
  Residual-Control   Outer-Iter.   Inner-Iter.     Column Row Layer    Maximum-Head-Change  Column Row Layer    Maximum-Flux-Residual          L2-NORM 
          0                 1           2             4    7     1       0.1681697780E-01       4    7    1         0.8820324904E+00      0.2195665879E+01
          0                 2           2             4    7     1      -0.1635838963E-02       4    7    1        -0.8820362496E-01      0.2195649190E+00
          0                 3           1             4    7     1       0.1113945174E-03       4    7    1         0.6174252856E-02      0.1536938090E-01
          0                 4           1             4    7     1      -0.4432495506E-05       4    7    1        -0.2525273146E-03      0.6285923782E-03

    ------------------------------------------------
       NWT REQUIRED            4 OUTER ITERATIONS 
       AND A TOTAL OF          6 INNER ITERATIONS.
    ------------------------------------------------

 NO OUTPUT CONTROL FOR STRESS PERIOD   27   TIME STEP    5
 
 SOLVING FOR HEAD 
                                                   Max.-Head-Change                         Max.-Flux-Residual
  Residual-Control   Outer-Iter.   Inner-Iter.     Column Row Layer    Maximum-Head-Change  Column Row Layer    Maximum-Flux-Residual          L2-NORM 
          0                 1           2             4    7     1       0.1666053694E-01       4    7    1         0.8737889210E+00      0.2179667319E+01
          0                 2           2             4    7     1      -0.1620621417E-02       4    7    1        -0.8737926018E-01      0.2179650459E+00
          0                 3           1             4    7     1       0.1103582600E-03       4    7    1         0.6116547377E-02      0.1525737832E-01
          0                 4           1             4    7     1      -0.4391261865E-05       4    7    1        -0.2501671518E-03      0.6240140631E-03

    ------------------------------------------------
       NWT REQUIRED            4 OUTER ITERATIONS 
       AND A TOTAL OF          6 INNER ITERATIONS.
    ------------------------------------------------

 NO OUTPUT CONTROL FOR STRESS PERIOD   27   TIME STEP    6
 
 SOLVING FOR HEAD 
                                                   Max.-Head-Change                         Max.-Flux-Residual
  Residual-Control   Outer-Iter.   Inner-Iter.     Column Row Layer    Maximum-Head-Change  Column Row Layer    Maximum-Flux-Residual          L2-NORM 
          0                 1           2             4    7     1       0.1650618435E-01       4    7    1         0.8656556432E+00      0.2163863182E+01
          0                 2           2             4    7     1      -0.1605607005E-02       4    7    1        -0.8656592474E-01      0.2163846683E+00
          0                 3           1             4    7     1       0.1093358351E-03       4    7    1         0.6059613939E-02      0.1514674587E-01
          0                 4           1             4    7     1      -0.4350578304E-05       4    7    1        -0.2478385602E-03      0.6194782120E-03

    ------------------------------------------------
       NWT REQUIRED            4 OUTER ITERATIONS 
       AND A TOTAL OF          6 INNER ITERATIONS.
    ------------------------------------------------

 NO OUTPUT CONTROL FOR STRESS PERIOD   27   TIME STEP    7
 
 SOLVING FOR HEAD 
                                                   Max.-Head-Change                         Max.-Flux-Residual
  Residual-Control   Outer-Iter.   Inner-Iter.     Column Row Layer    Maximum-Head-Change  Column Row Layer    Maximum-Flux-Residual          L2-NORM 
          0                 1           2             4    7     1       0.1635401944E-01       4    7    1         0.8576379721E+00      0.2148258260E+01
          0                 2           2             4    7     1      -0.1590860224E-02       4    7    1        -0.8578544309E-01      0.2148300086E+00
          0                 3           1             4    7     1       0.1083316319E-03       4    7    1         0.6004980036E-02      0.1503793084E-01
          0                 4           1             4    7     1      -0.4310620507E-05       4    7    1        -0.2456040500E-03      0.6150354894E-03

    ------------------------------------------------
       NWT REQUIRED            4 OUTER ITERATIONS 
       AND A TOTAL OF          6 INNER ITERATIONS.
    ------------------------------------------------

 NO OUTPUT CONTROL FOR STRESS PERIOD   27   TIME STEP    8
 
 SOLVING FOR HEAD 
                                                   Max.-Head-Change                         Max.-Flux-Residual
  Residual-Control   Outer-Iter.   Inner-Iter.     Column Row Layer    Maximum-Head-Change  Column Row Layer    Maximum-Flux-Residual          L2-NORM 
          0                 1           2             4    7     1       0.1620058412E-01       4    7    1         0.8497234728E+00      0.2132847595E+01
          0                 2           2             4    7     1      -0.1575880539E-02       4    7    1        -0.8497271547E-01      0.2132831169E+00
          0                 3           1             4    7     1       0.1073115721E-03       4    7    1         0.5948089175E-02      0.1492964617E-01
          0                 4           1             4    7     1      -0.4270030775E-05       4    7    1        -0.2432771937E-03      0.6106202452E-03

    ------------------------------------------------
       NWT REQUIRED            4 OUTER ITERATIONS 
       AND A TOTAL OF          6 INNER ITERATIONS.
    ------------------------------------------------

 NO OUTPUT CONTROL FOR STRESS PERIOD   27   TIME STEP    9
 
 SOLVING FOR HEAD 
                                                   Max.-Head-Change                         Max.-Flux-Residual
  Residual-Control   Outer-Iter.   Inner-Iter.     Column Row Layer    Maximum-Head-Change  Column Row Layer    Maximum-Flux-Residual          L2-NORM 
          0                 1           2             4    7     1       0.1604970406E-01       4    7    1         0.8417635979E+00      0.2117575434E+01
          0                 2           2             4    7     1      -0.1561203898E-02       4    7    1        -0.8417671949E-01      0.2117559070E+00
          0                 3           1             4    7     1       0.1063121481E-03       4    7    1         0.5892369497E-02      0.1482274824E-01
          0                 4           1             4    7     1      -0.4230262824E-05       4    7    1        -0.2409982576E-03      0.6062489842E-03

    ------------------------------------------------
       NWT REQUIRED            4 OUTER ITERATIONS 
       AND A TOTAL OF          6 INNER ITERATIONS.
    ------------------------------------------------

 NO OUTPUT CONTROL FOR STRESS PERIOD   27   TIME STEP   10
 
 SOLVING FOR HEAD 
                                                   Max.-Head-Change                         Max.-Flux-Residual
  Residual-Control   Outer-Iter.   Inner-Iter.     Column Row Layer    Maximum-Head-Change  Column Row Layer    Maximum-Flux-Residual          L2-NORM 
          0                 1           2             4    7     1       0.1590099123E-01       4    7    1         0.8339186364E+00      0.2102488221E+01
          0                 2           2             4    7     1      -0.1546738072E-02       4    7    1        -0.8339221508E-01      0.2102471940E+00
          0                 3           1             4    7     1       0.1053270807E-03       4    7    1         0.5837454255E-02      0.1471710836E-01
          0                 4           1             4    7     1      -0.4191066135E-05       4    7    1        -0.2387522331E-03      0.6018981536E-03

    ------------------------------------------------
       NWT REQUIRED            4 OUTER ITERATIONS 
       AND A TOTAL OF          6 INNER ITERATIONS.
    ------------------------------------------------

 NO OUTPUT CONTROL FOR STRESS PERIOD   27   TIME STEP   11
 
 SOLVING FOR HEAD 
                                                   Max.-Head-Change                         Max.-Flux-Residual
  Residual-Control   Outer-Iter.   Inner-Iter.     Column Row Layer    Maximum-Head-Change  Column Row Layer    Maximum-Flux-Residual          L2-NORM 
          0                 1           2             4    7     1       0.1575439467E-01       4    7    1         0.8261860418E+00      0.2087586413E+01
          0                 2           2             4    7     1      -0.1532478105E-02       4    7    1        -0.8261894761E-01      0.2087570325E+00
          0                 3           1             4    7     1       0.1043560306E-03       4    7    1         0.5783325577E-02      0.1461279352E-01
          0                 4           1             4    7     1      -0.4152427010E-05       4    7    1        -0.2365383507E-03      0.5976155851E-03

    ------------------------------------------------
       NWT REQUIRED            4 OUTER ITERATIONS 
       AND A TOTAL OF          6 INNER ITERATIONS.
    ------------------------------------------------

 NO OUTPUT CONTROL FOR STRESS PERIOD   27   TIME STEP   12
 
 SOLVING FOR HEAD 
                                                   Max.-Head-Change                         Max.-Flux-Residual
  Residual-Control   Outer-Iter.   Inner-Iter.     Column Row Layer    Maximum-Head-Change  Column Row Layer    Maximum-Flux-Residual          L2-NORM 
          0                 1           2             4    7     1       0.1561013519E-01       4    7    1         0.8185778423E+00      0.2072874888E+01
          0                 2           2             4    7     1      -0.1518445476E-02       4    7    1        -0.8185811988E-01      0.2072859207E+00
          0                 3           1             4    7     1       0.1034004618E-03       4    7    1         0.5730067683E-02      0.1450987866E-01
          0                 4           1             4    7     1      -0.4114404393E-05       4    7    1        -0.2343601122E-03      0.5934536179E-03

    ------------------------------------------------
       NWT REQUIRED            4 OUTER ITERATIONS 
       AND A TOTAL OF          6 INNER ITERATIONS.
    ------------------------------------------------

 NO OUTPUT CONTROL FOR STRESS PERIOD   27   TIME STEP   13
 
 SOLVING FOR HEAD 
                                                   Max.-Head-Change                         Max.-Flux-Residual
  Residual-Control   Outer-Iter.   Inner-Iter.     Column Row Layer    Maximum-Head-Change  Column Row Layer    Maximum-Flux-Residual          L2-NORM 
          0                 1           2             4    7     1       0.1546801739E-01       4    7    1         0.8110834822E+00      0.2058332255E+01
          0                 2           2             4    7     1      -0.1504621178E-02       4    7    1        -0.8110867633E-01      0.2058316494E+00
          0                 3           1             4    7     1       0.1024590794E-03       4    7    1         0.5677606690E-02      0.1440806821E-01
          0                 4           1             4    7     1      -0.4076945671E-05       4    7    1        -0.2322144485E-03      0.5892738180E-03

    ------------------------------------------------
       NWT REQUIRED            4 OUTER ITERATIONS 
       AND A TOTAL OF          6 INNER ITERATIONS.
    ------------------------------------------------

 NO OUTPUT CONTROL FOR STRESS PERIOD   27   TIME STEP   14
 
 SOLVING FOR HEAD 
                                                   Max.-Head-Change                         Max.-Flux-Residual
  Residual-Control   Outer-Iter.   Inner-Iter.     Column Row Layer    Maximum-Head-Change  Column Row Layer    Maximum-Flux-Residual          L2-NORM 
          0                 1           2             4    7     1       0.1532785605E-01       4    7    1         0.8036928295E+00      0.2043971152E+01
          0                 2           2             4    7     1      -0.1490987193E-02       4    7    1        -0.8036960369E-01      0.2043955362E+00
          0                 3           1             4    7     1       0.1015306568E-03       4    7    1         0.5625871665E-02      0.1430751649E-01
          0                 4           1             4    7     1      -0.4040003066E-05       4    7    1        -0.2300984818E-03      0.5851615152E-03

    ------------------------------------------------
       NWT REQUIRED            4 OUTER ITERATIONS 
       AND A TOTAL OF          6 INNER ITERATIONS.
    ------------------------------------------------

 NO OUTPUT CONTROL FOR STRESS PERIOD   27   TIME STEP   15
 
 SOLVING FOR HEAD 
                                                   Max.-Head-Change                         Max.-Flux-Residual
  Residual-Control   Outer-Iter.   Inner-Iter.     Column Row Layer    Maximum-Head-Change  Column Row Layer    Maximum-Flux-Residual          L2-NORM 
          0                 1           2             4    7     1       0.1518974632E-01       4    7    1         0.7964109521E+00      0.2029780425E+01
          0                 2           2             4    7     1      -0.1477552777E-02       4    7    1        -0.7964140882E-01      0.2029764675E+00
          0                 3           1             4    7     1       0.1006158237E-03       4    7    1         0.5574898064E-02      0.1420819693E-01
          0                 4           1             4    7     1      -0.4003600755E-05       4    7    1        -0.2280136550E-03      0.5810935630E-03

    ------------------------------------------------
       NWT REQUIRED            4 OUTER ITERATIONS 
       AND A TOTAL OF          6 INNER ITERATIONS.
    ------------------------------------------------

 NO OUTPUT CONTROL FOR STRESS PERIOD   27   TIME STEP   16
 
 SOLVING FOR HEAD 
                                                   Max.-Head-Change                         Max.-Flux-Residual
  Residual-Control   Outer-Iter.   Inner-Iter.     Column Row Layer    Maximum-Head-Change  Column Row Layer    Maximum-Flux-Residual          L2-NORM 
          0                 1           2             4    7     1       0.1505363617E-01       4    7    1         0.7892354471E+00      0.2015766078E+01
          0                 2           2             4    7     1      -0.1464312868E-02       4    7    1        -0.7892385140E-01      0.2015750777E+00
          0                 3           1             4    7     1       0.9971423580E-04       4    7    1         0.5524669071E-02      0.1411010280E-01

    ------------------------------------------------
       NWT REQUIRED            3 OUTER ITERATIONS 
       AND A TOTAL OF          5 INNER ITERATIONS.
    ------------------------------------------------

 NO OUTPUT CONTROL FOR STRESS PERIOD   27   TIME STEP   17
 
 SOLVING FOR HEAD 
                                                   Max.-Head-Change                         Max.-Flux-Residual
  Residual-Control   Outer-Iter.   Inner-Iter.     Column Row Layer    Maximum-Head-Change  Column Row Layer    Maximum-Flux-Residual          L2-NORM 
          0                 1           2             4    7     1       0.1491956791E-01       4    7    1         0.7821684272E+00      0.2001912323E+01
          0                 2           2             4    7     1      -0.1451271583E-02       4    7    1        -0.7821714268E-01      0.2001896953E+00
          0                 3           1             4    7     1       0.9882617331E-04       4    7    1         0.5475199501E-02      0.1401314366E-01

    ------------------------------------------------
       NWT REQUIRED            3 OUTER ITERATIONS 
       AND A TOTAL OF          5 INNER ITERATIONS.
    ------------------------------------------------

 NO OUTPUT CONTROL FOR STRESS PERIOD   27   TIME STEP   18
 
 SOLVING FOR HEAD 
                                                   Max.-Head-Change                         Max.-Flux-Residual
  Residual-Control   Outer-Iter.   Inner-Iter.     Column Row Layer    Maximum-Head-Change  Column Row Layer    Maximum-Flux-Residual          L2-NORM 
          0                 1           2             4    7     1       0.1478727222E-01       4    7    1         0.7751951637E+00      0.1988219098E+01
          0                 2           2             4    7     1      -0.1438402722E-02       4    7    1        -0.7751980979E-01      0.1988203439E+00
          0                 3           1             4    7     1       0.9794985300E-04       4    7    1         0.5426386254E-02      0.1391725179E-01

    ------------------------------------------------
       NWT REQUIRED            3 OUTER ITERATIONS 
       AND A TOTAL OF          5 INNER ITERATIONS.
    ------------------------------------------------

 NO OUTPUT CONTROL FOR STRESS PERIOD   27   TIME STEP   19
 
 SOLVING FOR HEAD 
                                                   Max.-Head-Change                         Max.-Flux-Residual
  Residual-Control   Outer-Iter.   Inner-Iter.     Column Row Layer    Maximum-Head-Change  Column Row Layer    Maximum-Flux-Residual          L2-NORM 
          0                 1           2             4    7     1       0.1465684463E-01       4    7    1         0.7683211406E+00      0.1974689558E+01
          0                 2           2             4    7     1      -0.1425715580E-02       4    7    1        -0.7683240108E-01      0.1974674585E+00
          0                 3           1             4    7     1       0.9708590657E-04       4    7    1         0.5378267692E-02      0.1382258167E-01

    ------------------------------------------------
       NWT REQUIRED            3 OUTER ITERATIONS 
       AND A TOTAL OF          5 INNER ITERATIONS.
    ------------------------------------------------

 NO OUTPUT CONTROL FOR STRESS PERIOD   27   TIME STEP   20
 
 SOLVING FOR HEAD 
                                                   Max.-Head-Change                         Max.-Flux-Residual
  Residual-Control   Outer-Iter.   Inner-Iter.     Column Row Layer    Maximum-Head-Change  Column Row Layer    Maximum-Flux-Residual          L2-NORM 
          0                 1           2             4    7     1       0.1452837604E-01       4    7    1         0.7615513126E+00      0.1961321664E+01
          0                 2           2             4    7     1      -0.1413218998E-02       4    7    1        -0.7615541210E-01      0.1961306616E+00
          0                 3           1             4    7     1       0.9623493658E-04       4    7    1         0.5330878495E-02      0.1372899560E-01

    ------------------------------------------------
       NWT REQUIRED            3 OUTER ITERATIONS 
       AND A TOTAL OF          5 INNER ITERATIONS.
    ------------------------------------------------

 NO OUTPUT CONTROL FOR STRESS PERIOD   27   TIME STEP   21
 
 SOLVING FOR HEAD 
                                                   Max.-Head-Change                         Max.-Flux-Residual
  Residual-Control   Outer-Iter.   Inner-Iter.     Column Row Layer    Maximum-Head-Change  Column Row Layer    Maximum-Flux-Residual          L2-NORM 
          0                 1           2             4    7     1       0.1440155270E-01       4    7    1         0.7548683809E+00      0.1948102736E+01
          0                 2           2             4    7     1      -0.1400882455E-02       4    7    1        -0.7548711290E-01      0.1948087492E+00
          0                 3           1             4    7     1       0.9539486480E-04       4    7    1         0.5284097592E-02      0.1363645483E-01

    ------------------------------------------------
       NWT REQUIRED            3 OUTER ITERATIONS 
       AND A TOTAL OF          5 INNER ITERATIONS.
    ------------------------------------------------

 NO OUTPUT CONTROL FOR STRESS PERIOD   27   TIME STEP   22
 
 SOLVING FOR HEAD 
                                                   Max.-Head-Change                         Max.-Flux-Residual
  Residual-Control   Outer-Iter.   Inner-Iter.     Column Row Layer    Maximum-Head-Change  Column Row Layer    Maximum-Flux-Residual          L2-NORM 
          0                 1           2             4    7     1       0.1427661220E-01       4    7    1         0.7482854269E+00      0.1935053449E+01
          0                 2           2             4    7     1      -0.1388729065E-02       4    7    1        -0.7482881165E-01      0.1935038171E+00
          0                 3           1             4    7     1       0.9456726464E-04       4    7    1         0.5238016548E-02      0.1354508598E-01

    ------------------------------------------------
       NWT REQUIRED            3 OUTER ITERATIONS 
       AND A TOTAL OF          5 INNER ITERATIONS.
    ------------------------------------------------

 NO OUTPUT CONTROL FOR STRESS PERIOD   27   TIME STEP   23
 
 SOLVING FOR HEAD 
                                                   Max.-Head-Change                         Max.-Flux-Residual
  Residual-Control   Outer-Iter.   Inner-Iter.     Column Row Layer    Maximum-Head-Change  Column Row Layer    Maximum-Flux-Residual          L2-NORM 
          0                 1           2             4    7     1       0.1415324043E-01       4    7    1         0.7417854192E+00      0.1922142945E+01
          0                 2           2             4    7     1      -0.1376728270E-02       4    7    1        -0.7417880516E-01      0.1922127697E+00
          0                 3           1             4    7     1       0.9375005562E-04       4    7    1         0.5192516108E-02      0.1345474511E-01

    ------------------------------------------------
       NWT REQUIRED            3 OUTER ITERATIONS 
       AND A TOTAL OF          5 INNER ITERATIONS.
    ------------------------------------------------

 NO OUTPUT CONTROL FOR STRESS PERIOD   27   TIME STEP   24
 
 SOLVING FOR HEAD 
                                                   Max.-Head-Change                         Max.-Flux-Residual
  Residual-Control   Outer-Iter.   Inner-Iter.     Column Row Layer    Maximum-Head-Change  Column Row Layer    Maximum-Flux-Residual          L2-NORM 
          0                 1           2             4    7     1       0.1403167950E-01       4    7    1         0.7353814231E+00      0.1909389248E+01
          0                 2           2             4    7     1      -0.1364903624E-02       4    7    1        -0.7353839999E-01      0.1909374331E+00
          0                 3           1             4    7     1       0.9294484156E-04       4    7    1         0.5147687770E-02      0.1336547714E-01

    ------------------------------------------------
       NWT REQUIRED            3 OUTER ITERATIONS 
       AND A TOTAL OF          5 INNER ITERATIONS.
    ------------------------------------------------

 NO OUTPUT CONTROL FOR STRESS PERIOD   27   TIME STEP   25
 
 SOLVING FOR HEAD 
                                                   Max.-Head-Change                         Max.-Flux-Residual
  Residual-Control   Outer-Iter.   Inner-Iter.     Column Row Layer    Maximum-Head-Change  Column Row Layer    Maximum-Flux-Residual          L2-NORM 
          0                 1           2             4    7     1       0.1391174814E-01       4    7    1         0.7290639779E+00      0.1896779970E+01
          0                 2           2             4    7     1      -0.1353237494E-02       4    7    1        -0.7290665008E-01      0.1896765199E+00
          0                 3           1             4    7     1       0.9215042263E-04       4    7    1         0.5103465325E-02      0.1327720864E-01

    ------------------------------------------------
       NWT REQUIRED            3 OUTER ITERATIONS 
       AND A TOTAL OF          5 INNER ITERATIONS.
    ------------------------------------------------

 NO OUTPUT CONTROL FOR STRESS PERIOD   27   TIME STEP   26
 
 SOLVING FOR HEAD 
                                                   Max.-Head-Change                         Max.-Flux-Residual
  Residual-Control   Outer-Iter.   Inner-Iter.     Column Row Layer    Maximum-Head-Change  Column Row Layer    Maximum-Flux-Residual          L2-NORM 
          0                 1           2             4    7     1       0.1379354791E-01       4    7    1         0.7228383617E+00      0.1884318919E+01
          0                 2           2             4    7     1      -0.1341739757E-02       4    7    1        -0.7228408319E-01      0.1884303994E+00
          0                 3           1             4    7     1       0.9136747006E-04       4    7    1         0.5059885679E-02      0.1318999157E-01

    ------------------------------------------------
       NWT REQUIRED            3 OUTER ITERATIONS 
       AND A TOTAL OF          5 INNER ITERATIONS.
    ------------------------------------------------

 NO OUTPUT CONTROL FOR STRESS PERIOD   27   TIME STEP   27
 
 SOLVING FOR HEAD 
                                                   Max.-Head-Change                         Max.-Flux-Residual
  Residual-Control   Outer-Iter.   Inner-Iter.     Column Row Layer    Maximum-Head-Change  Column Row Layer    Maximum-Flux-Residual          L2-NORM 
          0                 1           2             4    7     1       0.1367676856E-01       4    7    1         0.7166878239E+00      0.1871995056E+01
          0                 2           2             4    7     1      -0.1330380233E-02       4    7    1        -0.7166902428E-01      0.1871959872E+00
          0                 3           1             4    7     1       0.9059392903E-04       4    7    1         0.5016831565E-02      0.1310358391E-01

    ------------------------------------------------
       NWT REQUIRED            3 OUTER ITERATIONS 
       AND A TOTAL OF          5 INNER ITERATIONS.
    ------------------------------------------------

 NO OUTPUT CONTROL FOR STRESS PERIOD   27   TIME STEP   28
 
 SOLVING FOR HEAD 
                                                   Max.-Head-Change                         Max.-Flux-Residual
  Residual-Control   Outer-Iter.   Inner-Iter.     Column Row Layer    Maximum-Head-Change  Column Row Layer    Maximum-Flux-Residual          L2-NORM 
          0                 1           2             4    7     1       0.1356165546E-01       4    7    1         0.7106256332E+00      0.1859814380E+01
          0                 2           2             4    7     1      -0.1319182794E-02       4    7    1        -0.7106280023E-01      0.1859799564E+00
          0                 3           1             4    7     1       0.8983142597E-04       4    7    1         0.4974395921E-02      0.1301846426E-01

    ------------------------------------------------
       NWT REQUIRED            3 OUTER ITERATIONS 
       AND A TOTAL OF          5 INNER ITERATIONS.
    ------------------------------------------------

 NO OUTPUT CONTROL FOR STRESS PERIOD   27   TIME STEP   29
 
 SOLVING FOR HEAD 
                                                   Max.-Head-Change                         Max.-Flux-Residual
  Residual-Control   Outer-Iter.   Inner-Iter.     Column Row Layer    Maximum-Head-Change  Column Row Layer    Maximum-Flux-Residual          L2-NORM 
          0                 1           2             4    7     1       0.1344803586E-01       4    7    1         0.7046424961E+00      0.1847774532E+01
          0                 2           2             4    7     1      -0.1308130633E-02       4    7    1        -0.7046448165E-01      0.1847759967E+00
          0                 3           1             4    7     1       0.8907881550E-04       4    7    1         0.4932513649E-02      0.1293418783E-01

    ------------------------------------------------
       NWT REQUIRED            3 OUTER ITERATIONS 
       AND A TOTAL OF          5 INNER ITERATIONS.
    ------------------------------------------------

 NO OUTPUT CONTROL FOR STRESS PERIOD   27   TIME STEP   30



 STREAM LISTING     PERIOD     27   STEP       30

 LAYER ROW COL. STREAM  RCH.  FLOW INTO     FLOW TO   FLOW OUT OF   OVRLND.     DIRECT     STREAM       STREAM     STREAM     STREAM   STREAMBED  STREAMBED
                SEG.NO.  NO.  STRM. RCH.    AQUIFER    STRM. RCH.    RUNOFF     PRECIP       ET          HEAD       DEPTH      WIDTH   CONDCTNC.   GRADIENT

   1    1    1     1     1    1.9000E+01  2.1427E-01   1.8786E+01  0.000E+00  0.000E+00  0.000E+00  1.09413E+03  1.082E+00  1.166E+01  5.249E-02  1.361E+00
   1    2    2     1     2    1.8786E+01  3.3054E-01   1.8455E+01  0.000E+00  0.000E+00  0.000E+00  1.08914E+03  1.077E+00  1.158E+01  8.107E-02  1.359E+00
   1    3    3     1     3    1.8455E+01  2.8064E-01   1.8175E+01  0.000E+00  0.000E+00  0.000E+00  1.08349E+03  1.072E+00  1.149E+01  6.892E-02  1.357E+00
   1    3    4     1     4    1.8175E+01  2.5740E-01   1.7917E+01  0.000E+00  0.000E+00  0.000E+00  1.07848E+03  1.068E+00  1.140E+01  6.328E-02  1.356E+00
   1    4    5     2     1    1.5917E+01  3.0542E-01   1.5612E+01  0.000E+00  0.000E+00  0.000E+00  1.07285E+03  9.157E-01  1.200E+01  7.800E-02  1.305E+00
   1    5    6     2     2    1.5612E+01  2.3438E-01   1.5377E+01  0.000E+00  0.000E+00  0.000E+00  1.06742E+03  9.063E-01  1.200E+01  6.000E-02  1.302E+00
   1    6    6     2     3    1.5377E+01  2.3388E-01   1.5143E+01  0.000E+00  0.000E+00  0.000E+00  1.06269E+03  8.980E-01  1.200E+01  6.000E-02  1.299E+00
   1    7    6     2     4    1.5143E+01  2.3338E-01   1.4910E+01  0.000E+00  0.000E+00  0.000E+00  1.05797E+03  8.897E-01  1.200E+01  6.000E-02  1.297E+00
   1    8    6     2     5    1.4910E+01  2.3289E-01   1.4677E+01  0.000E+00  0.000E+00  0.000E+00  1.05324E+03  8.814E-01  1.200E+01  6.000E-02  1.294E+00
   1    3    5     3     1    2.0000E+00  2.8252E-01   1.7175E+00  0.000E+00  0.000E+00  0.000E+00  1.07555E+03  1.909E+00  9.636E+00  7.227E-02  1.955E+00
   1    3    6     3     2    1.7175E+00  2.4905E-01   1.4684E+00  0.000E+00  0.000E+00  0.000E+00  1.07264E+03  1.727E+00  8.909E+00  6.682E-02  1.864E+00
   1    3    7     3     3    1.4684E+00  1.9718E-01   1.2712E+00  0.000E+00  0.000E+00  0.000E+00  1.06987E+03  1.555E+00  8.218E+00  5.547E-02  1.777E+00
   1    4    8     3     4    1.2712E+00  2.2567E-01   1.0456E+00  0.000E+00  0.000E+00  0.000E+00  1.06682E+03  1.364E+00  7.455E+00  6.709E-02  1.682E+00
   1    5    8     3     5    1.0456E+00  1.5790E-01   8.8768E-01  0.000E+00  0.000E+00  0.000E+00  1.06362E+03  1.164E+00  6.655E+00  4.991E-02  1.582E+00
   1    6    8     3     6    8.8768E-01  5.5980E-02   8.3170E-01  0.000E+00  0.000E+00  0.000E+00  1.06158E+03  1.036E+00  6.145E+00  1.844E-02  1.518E+00
   1    5   10     4     1    1.0000E+01  9.0919E-02   9.9091E+00  0.000E+00  0.000E+00  0.000E+00  1.07836E+03  6.368E-01  1.000E+01  2.500E-02  1.212E+00
   1    5    9     4     2    9.9091E+00  1.8158E-01   9.7275E+00  0.000E+00  0.000E+00  0.000E+00  1.07154E+03  6.315E-01  1.000E+01  5.000E-02  1.211E+00
   1    6    8     4     3    9.7275E+00  1.2689E-01   9.6006E+00  0.000E+00  0.000E+00  0.000E+00  1.06381E+03  6.256E-01  1.000E+01  3.500E-02  1.209E+00
   1    6    8     5     1    1.0432E+01  2.2686E-01   1.0205E+01  0.000E+00  0.000E+00  0.000E+00  1.05868E+03  6.790E-01  1.542E+01  6.166E-02  1.226E+00
   1    7    7     5     2    1.0205E+01  2.7894E-01   9.9265E+00  0.000E+00  0.000E+00  0.000E+00  1.05417E+03  6.732E-01  1.519E+01  7.594E-02  1.224E+00
   1    8    7     5     3    9.9265E+00  1.9221E-01   9.7343E+00  0.000E+00  0.000E+00  0.000E+00  1.04992E+03  6.676E-01  1.497E+01  5.241E-02  1.223E+00
   1    8    6     5     4    9.7343E+00  1.3577E-01   9.5985E+00  0.000E+00  0.000E+00  0.000E+00  1.04691E+03  6.637E-01  1.482E+01  3.706E-02  1.221E+00
   1    9    6     6     1    2.4276E+01  2.5176E-01   2.4024E+01  0.000E+00  0.000E+00  0.000E+00  1.04392E+03  1.196E+00  1.200E+01  6.000E-02  1.399E+00
   1   10    7     6     2    2.4024E+01  2.5131E-01   2.3773E+01  0.000E+00  0.000E+00  0.000E+00  1.03937E+03  1.188E+00  1.200E+01  6.000E-02  1.396E+00
   1   11    7     6     3    2.3773E+01  2.5086E-01   2.3522E+01  0.000E+00  0.000E+00  0.000E+00  1.03482E+03  1.181E+00  1.200E+01  6.000E-02  1.394E+00
   1   12    7     6     4    2.3522E+01  2.5041E-01   2.3271E+01  0.000E+00  0.000E+00  0.000E+00  1.03026E+03  1.173E+00  1.200E+01  6.000E-02  1.391E+00
   1   13    7     6     5    2.3271E+01  4.2227E-03   2.3267E+01  0.000E+00  0.000E+00  0.000E+00  1.02708E+03  1.170E+00  1.200E+01  2.400E-02  5.865E-02
   1   14    9     7     1    1.5000E+02  1.3403E+00   1.4866E+02  0.000E+00  0.000E+00  0.000E+00  1.03987E+03  2.288E+00  5.529E+01  5.593E-01  7.988E-01
   1   13    8     7     2    1.4866E+02  1.8727E+00   1.4679E+02  0.000E+00  0.000E+00  0.000E+00  1.03478E+03  2.279E+00  5.526E+01  6.148E-01  1.015E+00
   1   13    7     7     3    1.4679E+02  1.5561E+00   1.4523E+02  0.000E+00  0.000E+00  0.000E+00  1.02969E+03  2.270E+00  5.522E+01  5.584E-01  9.289E-01
   1   13    6     8     1    1.6850E+02  1.0067E+00   1.6749E+02  0.000E+00  0.000E+00  0.000E+00  1.02481E+03  2.939E+00  4.262E+01  4.343E-01  7.727E-01
   1   13    5     8     2    1.6749E+02  2.6354E-01   1.6723E+02  0.000E+00  0.000E+00  0.000E+00  1.01856E+03  2.935E+00  4.256E+01  4.337E-01  2.026E-01
   1   13    4     8     3    1.6723E+02 -2.1244E+00   1.6935E+02  0.000E+00  0.000E+00  0.000E+00  1.01232E+03  2.941E+00  4.264E+01  4.346E+00 -1.629E-01
   1   13    3     8     4    1.6935E+02 -3.5079E+00   1.7286E+02  0.000E+00  0.000E+00  0.000E+00  1.00608E+03  2.959E+00  4.291E+01  4.373E+00 -2.674E-01
   1   13    2     8     5    1.7286E+02 -2.5501E+00   1.7541E+02  0.000E+00  0.000E+00  0.000E+00  9.99854E+02  2.979E+00  4.319E+01  4.402E+00 -1.931E-01
   1   13    1     8     6    1.7541E+02 -1.9784E+00   1.7739E+02  0.000E+00  0.000E+00  0.000E+00  9.94868E+02  2.993E+00  4.340E+01  2.654E+00 -2.485E-01





UNSATURATED ZONE PACKAGE VOLUMETRIC BUDGET FOR  TIME STEP    30 STRESS PERIOD   27
  ------------------------------------------------------------------------------



     CUMULATIVE VOLUMES      L**3       RATES FOR THIS TIME STEP      L**3/T
     ------------------                 ------------------------

           IN:                                      IN:
           ---                                      ---
        INFILTRATION =   865826922.4657          INFILTRATION =           0.8475

          OUT:                                     OUT:
          ----                                     ----
              UZF ET =   864032891.1598                UZF ET =           0.7500
        UZF RECHARGE =       73224.0000          UZF RECHARGE =       0.0000E+00

            IN - OUT =     1720807.3059              IN - OUT =       9.7500E-02

          STORAGE:                                 STORAGE:
          --------                                 --------
      STORAGE CHANGE =     1720801.2808        STORAGE CHANGE =       9.7500E-02

 PERCENT DISCREPANCY IS DIFFERENCE BETWEEN IN-OUT MINUS CHANGE IN STORAGE
 DIVIDED BY THE AVERAGE OF IN AND OUT TIMES 100

 PERCENT DISCREPANCY =           0.00     PERCENT DISCREPANCY =           0.00






1
  VOLUMETRIC BUDGET FOR AGRICULTURAL FIELDS AT  END OF TIME STEP   30, STRESS PERIOD  27
  ------------------------------------------------------------------------------

     CUMULATIVE VOLUMES      L**3       RATES FOR THIS TIME STEP      L**3/T
     ------------------                 ------------------------

           IN:                                      IN:
           ---                                      ---
               AG WELLS  =   807799168.0000                 AG WELLS  =           0.0000
      DIVERSION SEGMENTS =           0.0000        DIVERSION SEGMENTS =           0.0000
       IRRIGATION PONDS  =           0.0000         IRRIGATION PONDS  =           0.0000
           GW IRRIGATION =           0.0000             GW IRRIGATION =           0.0000
           SW IRRIGATION =           0.0000             SW IRRIGATION =           0.0000
        SYSTEM LOSSES GW =           0.0000          SYSTEM LOSSES GW =           0.0000
        SYSTEM LOSSES SW =           0.0000          SYSTEM LOSSES SW =           0.0000

                TOTAL IN =   807799168.0000                  TOTAL IN =           0.0000

          OUT:                                     OUT:
          ----                                     ----
               AG WELLS  =           0.0000                 AG WELLS  =           0.0000
      DIVERSION SEGMENTS =           0.0000        DIVERSION SEGMENTS =           0.0000
       IRRIGATION PONDS  =           0.0000         IRRIGATION PONDS  =           0.0000
           GW IRRIGATION =   807799168.0000             GW IRRIGATION =           0.0000
           SW IRRIGATION =           0.0000             SW IRRIGATION =           0.0000
        SYSTEM LOSSES GW =           0.0000          SYSTEM LOSSES GW =           0.0000
        SYSTEM LOSSES SW =           0.0000          SYSTEM LOSSES SW =           0.0000

               TOTAL OUT =   807799168.0000                 TOTAL OUT =           0.0000

                IN - OUT =           0.0000                  IN - OUT =           0.0000

     PERCENT DISCREPANCY =           0.00         PERCENT DISCREPANCY =           0.00



1
  VOLUMETRIC BUDGET FOR ENTIRE MODEL AT END OF TIME STEP   30, STRESS PERIOD  27
  ------------------------------------------------------------------------------

     CUMULATIVE VOLUMES      L**3       RATES FOR THIS TIME STEP      L**3/T
     ------------------                 ------------------------

           IN:                                      IN:
           ---                                      ---
             STORAGE     =  1128480640.0000               STORAGE     =           5.4056
       CONSTANT HEAD     =           0.0000         CONSTANT HEAD     =           0.0000
     HEAD DEP BOUNDS     =    19548016.0000       HEAD DEP BOUNDS     =           0.2861
      STREAM LEAKAGE     =   846429824.0000        STREAM LEAKAGE     =          11.7722
        UZF RECHARGE     =       73223.9531          UZF RECHARGE     =           0.0000
               GW ET     =           0.0000                 GW ET     =           0.0000
     SURFACE LEAKAGE     =           0.0000       SURFACE LEAKAGE     =           0.0000
           AG WELLS      =           0.0000             AG WELLS      =           0.0000

                TOTAL IN =  1994531712.0000                  TOTAL IN =          17.4638

          OUT:                                     OUT:
          ----                                     ----
             STORAGE     =   439626240.0000               STORAGE     =           7.0142
       CONSTANT HEAD     =           0.0000         CONSTANT HEAD     =           0.0000
     HEAD DEP BOUNDS     =    20108330.0000       HEAD DEP BOUNDS     =           0.2893
      STREAM LEAKAGE     =   709399552.0000        STREAM LEAKAGE     =          10.1607
        UZF RECHARGE     =           0.0000          UZF RECHARGE     =           0.0000
               GW ET     =    17603406.0000                 GW ET     =           0.0000
     SURFACE LEAKAGE     =           0.0000       SURFACE LEAKAGE     =           0.0000
           AG WELLS      =   807799168.0000             AG WELLS      =           0.0000

               TOTAL OUT =  1994536704.0000                 TOTAL OUT =          17.4643

                IN - OUT =       -4992.0000                  IN - OUT =      -4.5776E-04

     PERCENT DISCREPANCY =          -0.00         PERCENT DISCREPANCY =          -0.00






         TIME SUMMARY AT END OF TIME STEP   30 IN STRESS PERIOD   27
                    SECONDS     MINUTES      HOURS       DAYS        YEARS
                    -----------------------------------------------------------
   TIME STEP LENGTH  87667.      1461.1      24.352      1.0147     2.77799E-03
 STRESS PERIOD TIME 2.63000E+06  43833.      730.56      30.440     8.33397E-02
         TOTAL TIME 6.84668E+07 1.14111E+06  19019.      792.44      2.1696    
1
1
                            STRESS PERIOD NO.   28, LENGTH =   2630000.    
                            -----------------------------------------------

                              NUMBER OF TIME STEPS =    30

                               MULTIPLIER FOR DELT =     1.000

                            INITIAL TIME STEP SIZE =   87666.66    

 REUSING NON-PARAMETER GHB CELLS FROM LAST STRESS PERIOD

      2 GHB CELLS

 REUSING STREAM SEGMENT DATA FROM LAST STRESS PERIOD



            AREAL INFILTRATION RATE
 READING ON UNIT   19 WITH FORMAT: (FREE)              

            1           2           3           4           5           6           7           8           9          10
 ........................................................................................................................
   1   1.0000E-10  2.0000E-10   0.000       0.000       0.000       0.000       0.000       0.000       0.000       0.000    
   2   2.0000E-10  1.0000E-10  2.0000E-10   0.000       0.000      8.0000E-10  8.0000E-10  5.0000E-10   0.000       0.000    
   3    0.000      5.0000E-10  1.0000E-10  1.0000E-10  8.0000E-10  8.0000E-10  5.0000E-10  5.0000E-10   0.000       0.000    
   4   8.0000E-10  5.0000E-10  1.0000E-10  1.0000E-10  1.0000E-10  1.0000E-10  1.0000E-10  1.0000E-10  2.0000E-10   0.000    
   5   8.0000E-10  5.0000E-10  1.0000E-10  1.0000E-10  1.0000E-10  1.0000E-10  1.0000E-10  1.0000E-10  1.0000E-10  1.0000E-10
   6   8.0000E-10  5.0000E-10  5.0000E-10  2.0000E-10  2.0000E-10  1.0000E-10  1.0000E-10  1.0000E-10  1.0000E-10  5.0000E-10
   7   8.0000E-10  5.0000E-10  5.0000E-10  2.0000E-10  2.0000E-10  1.0000E-10  1.0000E-10  2.0000E-10  2.0000E-10   0.000    
   8    0.000      5.0000E-10  5.0000E-10  2.0000E-10  2.0000E-10  1.0000E-10  1.0000E-10  2.0000E-10  5.0000E-10   0.000    
   9    0.000      5.0000E-10  5.0000E-10  2.0000E-10  2.0000E-10  1.0000E-10  1.0000E-10  2.0000E-10  5.0000E-10   0.000    
  10    0.000      5.0000E-10  5.0000E-10  2.0000E-10  2.0000E-10  1.0000E-10  1.0000E-10  2.0000E-10  5.0000E-10  8.0000E-10
  11    0.000      1.0000E-10  1.0000E-10  1.0000E-10  1.0000E-10  1.0000E-10  1.0000E-10  2.0000E-10  5.0000E-10   0.000    
  12   1.0000E-10  1.0000E-10  1.0000E-10  1.0000E-10  1.0000E-10  1.0000E-10  1.0000E-10  1.0000E-10  2.0000E-10   0.000    
  13   1.0000E-10  1.0000E-10  2.0000E-10  2.0000E-10  2.0000E-10  2.0000E-10  2.0000E-10  1.0000E-10  1.0000E-10   0.000    
  14    0.000      2.0000E-10  5.0000E-10  5.0000E-10  5.0000E-10  5.0000E-10  5.0000E-10  2.0000E-10  1.0000E-10   0.000    
  15    0.000       0.000      8.0000E-10  8.0000E-10  8.0000E-10  8.0000E-10   0.000       0.000       0.000       0.000    

                  ET RATE =  5.000000E-10

 USING ET EXTINCTION DEPTH FROM PREVIOUS STRESS PERIOD. CURRENT PERIOD IS:      28

 USING EXTINCTION WATER CONTENT FROM PREVIOUS STRESS PERIOD. CURRENT PERIOD IS:      28

 USING AIR ENTRY PRESSURE FROM PREVIOUS STRESS PERIOD. CURRENT PERIOD IS:      28

 USING ROOT PRESSURE HEAD FROM PREVIOUS STRESS PERIOD. CURRENT PERIOD IS:      28

 USING ROOT ACTIVITY FROM PREVIOUS STRESS PERIOD. CURRENT PERIOD IS:      28

 PROCESSING AG STRESS PERIOD DATA

 READING AG STRESS PERIOD DATA

 READING IRRIGATION WELL

 NO IRRPOND OR REUSING IRRPOND DATA FROM LAST STRESS PERIOD

 END PROCESSING AG STRESS PERIOD DATA OPTIONS
 
 SOLVING FOR HEAD 
                                                   Max.-Head-Change                         Max.-Flux-Residual
  Residual-Control   Outer-Iter.   Inner-Iter.     Column Row Layer    Maximum-Head-Change  Column Row Layer    Maximum-Flux-Residual          L2-NORM 
          0                 1           2             4    7     1       0.1333588105E-01       4    7    1         0.6987367943E+00      0.1835872104E+01
          0                 2           2             4    7     1      -0.1297220958E-02       4    7    1        -0.6987390674E-01      0.1835857732E+00
          0                 3           1             4    7     1       0.8833590756E-04       4    7    1         0.4891173425E-02      0.1285088436E-01

    ------------------------------------------------
       NWT REQUIRED            3 OUTER ITERATIONS 
       AND A TOTAL OF          5 INNER ITERATIONS.
    ------------------------------------------------

 NO OUTPUT CONTROL FOR STRESS PERIOD   28   TIME STEP    1
 
 SOLVING FOR HEAD 
                                                   Max.-Head-Change                         Max.-Flux-Residual
  Residual-Control   Outer-Iter.   Inner-Iter.     Column Row Layer    Maximum-Head-Change  Column Row Layer    Maximum-Flux-Residual          L2-NORM 
          0                 1           2             4    7     1       0.1322529553E-01       4    7    1         0.6929143784E+00      0.1824105961E+01
          0                 2           2             4    7     1      -0.1286463934E-02       4    7    1        -0.6929166053E-01      0.1824091199E+00
          0                 3           1             4    7     1       0.8760339491E-04       4    7    1         0.4850416226E-02      0.1276848972E-01

    ------------------------------------------------
       NWT REQUIRED            3 OUTER ITERATIONS 
       AND A TOTAL OF          5 INNER ITERATIONS.
    ------------------------------------------------

 NO OUTPUT CONTROL FOR STRESS PERIOD   28   TIME STEP    2
 
 SOLVING FOR HEAD 
                                                   Max.-Head-Change                         Max.-Flux-Residual
  Residual-Control   Outer-Iter.   Inner-Iter.     Column Row Layer    Maximum-Head-Change  Column Row Layer    Maximum-Flux-Residual          L2-NORM 
          0                 1           2             4    7     1       0.1311610927E-01       4    7    1         0.6871659881E+00      0.1812471295E+01
          0                 2           2             4    7     1      -0.1275843022E-02       4    7    1        -0.6871681701E-01      0.1812456887E+00
          0                 3           1             4    7     1       0.8688015074E-04       4    7    1         0.4810177201E-02      0.1268706673E-01

    ------------------------------------------------
       NWT REQUIRED            3 OUTER ITERATIONS 
       AND A TOTAL OF          5 INNER ITERATIONS.
    ------------------------------------------------

 NO OUTPUT CONTROL FOR STRESS PERIOD   28   TIME STEP    3
 
 SOLVING FOR HEAD 
                                                   Max.-Head-Change                         Max.-Flux-Residual
  Residual-Control   Outer-Iter.   Inner-Iter.     Column Row Layer    Maximum-Head-Change  Column Row Layer    Maximum-Flux-Residual          L2-NORM 
          0                 1           2             4    7     1       0.1300829497E-01       4    7    1         0.6814901467E+00      0.1800968480E+01
          0                 2           2             4    7     1      -0.1265355565E-02       4    7    1        -0.6814922847E-01      0.1800954238E+00
          0                 3           1             4    7     1       0.8616599435E-04       4    7    1         0.4770446033E-02      0.1260654539E-01

    ------------------------------------------------
       NWT REQUIRED            3 OUTER ITERATIONS 
       AND A TOTAL OF          5 INNER ITERATIONS.
    ------------------------------------------------

 NO OUTPUT CONTROL FOR STRESS PERIOD   28   TIME STEP    4
 
 SOLVING FOR HEAD 
                                                   Max.-Head-Change                         Max.-Flux-Residual
  Residual-Control   Outer-Iter.   Inner-Iter.     Column Row Layer    Maximum-Head-Change  Column Row Layer    Maximum-Flux-Residual          L2-NORM 
          0                 1           2             4    7     1       0.1290196323E-01       4    7    1         0.6758927790E+00      0.1789590866E+01
          0                 2           2             4    7     1      -0.1255012323E-02       4    7    1        -0.6758948742E-01      0.1789576472E+00
          0                 3           1             4    7     1       0.8546165860E-04       4    7    1         0.4731264193E-02      0.1252687774E-01

    ------------------------------------------------
       NWT REQUIRED            3 OUTER ITERATIONS 
       AND A TOTAL OF          5 INNER ITERATIONS.
    ------------------------------------------------

 NO OUTPUT CONTROL FOR STRESS PERIOD   28   TIME STEP    5
 
 SOLVING FOR HEAD 
                                                   Max.-Head-Change                         Max.-Flux-Residual
  Residual-Control   Outer-Iter.   Inner-Iter.     Column Row Layer    Maximum-Head-Change  Column Row Layer    Maximum-Flux-Residual          L2-NORM 
          0                 1           2             4    7     1       0.1279707790E-01       4    7    1         0.6703722794E+00      0.1778341547E+01
          0                 2           2             4    7     1      -0.1244809778E-02       4    7    1        -0.6703743331E-01      0.1778327224E+00
          0                 3           1             4    7     1       0.8476690338E-04       4    7    1         0.4692620410E-02      0.1244813066E-01

    ------------------------------------------------
       NWT REQUIRED            3 OUTER ITERATIONS 
       AND A TOTAL OF          5 INNER ITERATIONS.
    ------------------------------------------------

 NO OUTPUT CONTROL FOR STRESS PERIOD   28   TIME STEP    6
 
 SOLVING FOR HEAD 
                                                   Max.-Head-Change                         Max.-Flux-Residual
  Residual-Control   Outer-Iter.   Inner-Iter.     Column Row Layer    Maximum-Head-Change  Column Row Layer    Maximum-Flux-Residual          L2-NORM 
          0                 1           2             4    7     1       0.1269334117E-01       4    7    1         0.6649120927E+00      0.1767212565E+01
          0                 2           2             4    7     1      -0.1234718963E-02       4    7    1        -0.6649141058E-01      0.1767198258E+00
          0                 3           1             4    7     1       0.8407975709E-04       4    7    1         0.4654398846E-02      0.1237024751E-01

    ------------------------------------------------
       NWT REQUIRED            3 OUTER ITERATIONS 
       AND A TOTAL OF          5 INNER ITERATIONS.
    ------------------------------------------------

 NO OUTPUT CONTROL FOR STRESS PERIOD   28   TIME STEP    7
 
 SOLVING FOR HEAD 
                                                   Max.-Head-Change                         Max.-Flux-Residual
  Residual-Control   Outer-Iter.   Inner-Iter.     Column Row Layer    Maximum-Head-Change  Column Row Layer    Maximum-Flux-Residual          L2-NORM 
          0                 1           2             4    7     1       0.1259100563E-01       4    7    1         0.6595261402E+00      0.1756205664E+01
          0                 2           2             4    7     1      -0.1224764447E-02       4    7    1        -0.6595281135E-01      0.1756191575E+00
          0                 3           1             4    7     1       0.8340189194E-04       4    7    1         0.4616696915E-02      0.1229320572E-01

    ------------------------------------------------
       NWT REQUIRED            3 OUTER ITERATIONS 
       AND A TOTAL OF          5 INNER ITERATIONS.
    ------------------------------------------------

 NO OUTPUT CONTROL FOR STRESS PERIOD   28   TIME STEP    8
 
 SOLVING FOR HEAD 
                                                   Max.-Head-Change                         Max.-Flux-Residual
  Residual-Control   Outer-Iter.   Inner-Iter.     Column Row Layer    Maximum-Head-Change  Column Row Layer    Maximum-Flux-Residual          L2-NORM 
          0                 1           2             4    7     1       0.1249003859E-01       4    7    1         0.6542128372E+00      0.1745327579E+01
          0                 2           2             4    7     1      -0.1214943050E-02       4    7    1        -0.6542147721E-01      0.1745313590E+00
          0                 3           1             4    7     1       0.8273309174E-04       4    7    1         0.4579503549E-02      0.1221705923E-01

    ------------------------------------------------
       NWT REQUIRED            3 OUTER ITERATIONS 
       AND A TOTAL OF          5 INNER ITERATIONS.
    ------------------------------------------------

 NO OUTPUT CONTROL FOR STRESS PERIOD   28   TIME STEP    9
 
 SOLVING FOR HEAD 
                                                   Max.-Head-Change                         Max.-Flux-Residual
  Residual-Control   Outer-Iter.   Inner-Iter.     Column Row Layer    Maximum-Head-Change  Column Row Layer    Maximum-Flux-Residual          L2-NORM 
          0                 1           2             4    7     1       0.1239027841E-01       4    7    1         0.6489631474E+00      0.1734561217E+01
          0                 2           2             4    7     1      -0.1205239049E-02       4    7    1        -0.6489650444E-01      0.1734547047E+00
          0                 3           1             4    7     1       0.8207228612E-04       4    7    1         0.4542755488E-02      0.1214167817E-01

    ------------------------------------------------
       NWT REQUIRED            3 OUTER ITERATIONS 
       AND A TOTAL OF          5 INNER ITERATIONS.
    ------------------------------------------------

 NO OUTPUT CONTROL FOR STRESS PERIOD   28   TIME STEP   10
 
 SOLVING FOR HEAD 
                                                   Max.-Head-Change                         Max.-Flux-Residual
  Residual-Control   Outer-Iter.   Inner-Iter.     Column Row Layer    Maximum-Head-Change  Column Row Layer    Maximum-Flux-Residual          L2-NORM 
          0                 1           2             4    7     1       0.1229183894E-01       4    7    1         0.6437833723E+00      0.1723917037E+01
          0                 2           2             4    7     1      -0.1195663517E-02       4    7    1        -0.6437852325E-01      0.1723905309E+00
          0                 3           1             4    7     1       0.8142022841E-04       4    7    1         0.4506496821E-02      0.1206723563E-01

    ------------------------------------------------
       NWT REQUIRED            3 OUTER ITERATIONS 
       AND A TOTAL OF          5 INNER ITERATIONS.
    ------------------------------------------------

 NO OUTPUT CONTROL FOR STRESS PERIOD   28   TIME STEP   11
 
 SOLVING FOR HEAD 
                                                   Max.-Head-Change                         Max.-Flux-Residual
  Residual-Control   Outer-Iter.   Inner-Iter.     Column Row Layer    Maximum-Head-Change  Column Row Layer    Maximum-Flux-Residual          L2-NORM 
          0                 1           2             4    7     1       0.1219455447E-01       4    7    1         0.6386647319E+00      0.1713381658E+01
          0                 2           2             4    7     1      -0.1186200338E-02       4    7    1        -0.6386665563E-01      0.1713367892E+00
          0                 3           1             4    7     1       0.8077582141E-04       4    7    1         0.4470666112E-02      0.1199342592E-01

    ------------------------------------------------
       NWT REQUIRED            3 OUTER ITERATIONS 
       AND A TOTAL OF          5 INNER ITERATIONS.
    ------------------------------------------------

 NO OUTPUT CONTROL FOR STRESS PERIOD   28   TIME STEP   12
 
 SOLVING FOR HEAD 
                                                   Max.-Head-Change                         Max.-Flux-Residual
  Residual-Control   Outer-Iter.   Inner-Iter.     Column Row Layer    Maximum-Head-Change  Column Row Layer    Maximum-Flux-Residual          L2-NORM 
          0                 1           2             4    7     1       0.1209840592E-01       4    7    1         0.6336059765E+00      0.1702956152E+01
          0                 2           2             4    7     1      -0.1176847654E-02       4    7    1        -0.6336077657E-01      0.1702942308E+00
          0                 3           1             4    7     1       0.8013893861E-04       4    7    1         0.4435254591E-02      0.1192047391E-01

    ------------------------------------------------
       NWT REQUIRED            3 OUTER ITERATIONS 
       AND A TOTAL OF          5 INNER ITERATIONS.
    ------------------------------------------------

 NO OUTPUT CONTROL FOR STRESS PERIOD   28   TIME STEP   13
 
 SOLVING FOR HEAD 
                                                   Max.-Head-Change                         Max.-Flux-Residual
  Residual-Control   Outer-Iter.   Inner-Iter.     Column Row Layer    Maximum-Head-Change  Column Row Layer    Maximum-Flux-Residual          L2-NORM 
          0                 1           2             4    7     1       0.1200364225E-01       4    7    1         0.6286208005E+00      0.1692654156E+01
          0                 2           2             4    7     1      -0.1167629682E-02       4    7    1        -0.6286225557E-01      0.1692640575E+00
          0                 3           1             4    7     1       0.7951122961E-04       4    7    1         0.4400358132E-02      0.1184836024E-01

    ------------------------------------------------
       NWT REQUIRED            3 OUTER ITERATIONS 
       AND A TOTAL OF          5 INNER ITERATIONS.
    ------------------------------------------------

 NO OUTPUT CONTROL FOR STRESS PERIOD   28   TIME STEP   14
 
 SOLVING FOR HEAD 
                                                   Max.-Head-Change                         Max.-Flux-Residual
  Residual-Control   Outer-Iter.   Inner-Iter.     Column Row Layer    Maximum-Head-Change  Column Row Layer    Maximum-Flux-Residual          L2-NORM 
          0                 1           2             4    7     1       0.1190982870E-01       4    7    1         0.6236854019E+00      0.1682456703E+01
          0                 2           2             4    7     1      -0.1158504132E-02       4    7    1        -0.6236871235E-01      0.1682443076E+00
          0                 3           1             4    7     1       0.7888981376E-04       4    7    1         0.4365810123E-02      0.1177697713E-01

    ------------------------------------------------
       NWT REQUIRED            3 OUTER ITERATIONS 
       AND A TOTAL OF          5 INNER ITERATIONS.
    ------------------------------------------------

 NO OUTPUT CONTROL FOR STRESS PERIOD   28   TIME STEP   15
 
 SOLVING FOR HEAD 
                                                   Max.-Head-Change                         Max.-Flux-Residual
  Residual-Control   Outer-Iter.   Inner-Iter.     Column Row Layer    Maximum-Head-Change  Column Row Layer    Maximum-Flux-Residual          L2-NORM 
          0                 1           2             4    7     1       0.1181735691E-01       4    7    1         0.6188212917E+00      0.1672370091E+01
          0                 2           2             4    7     1      -0.1149509101E-02       4    7    1        -0.6188229809E-01      0.1672357805E+00
          0                 3           1             4    7     1       0.7827728630E-04       4    7    1         0.4331761143E-02      0.1170637336E-01

    ------------------------------------------------
       NWT REQUIRED            3 OUTER ITERATIONS 
       AND A TOTAL OF          5 INNER ITERATIONS.
    ------------------------------------------------

 NO OUTPUT CONTROL FOR STRESS PERIOD   28   TIME STEP   16
 
 SOLVING FOR HEAD 
                                                   Max.-Head-Change                         Max.-Flux-Residual
  Residual-Control   Outer-Iter.   Inner-Iter.     Column Row Layer    Maximum-Head-Change  Column Row Layer    Maximum-Flux-Residual          L2-NORM 
          0                 1           2             4    7     1       0.1172592637E-01       4    7    1         0.6140120652E+00      0.1662387834E+01
          0                 2           2             4    7     1      -0.1140615354E-02       4    7    1        -0.6140137225E-01      0.1662373437E+00
          0                 3           1             4    7     1       0.7767165537E-04       4    7    1         0.4298096345E-02      0.1163642458E-01

    ------------------------------------------------
       NWT REQUIRED            3 OUTER ITERATIONS 
       AND A TOTAL OF          5 INNER ITERATIONS.
    ------------------------------------------------

 NO OUTPUT CONTROL FOR STRESS PERIOD   28   TIME STEP   17
 
 SOLVING FOR HEAD 
                                                   Max.-Head-Change                         Max.-Flux-Residual
  Residual-Control   Outer-Iter.   Inner-Iter.     Column Row Layer    Maximum-Head-Change  Column Row Layer    Maximum-Flux-Residual          L2-NORM 
          0                 1           2             4    7     1       0.1163565569E-01       4    7    1         0.6092641677E+00      0.1652513705E+01
          0                 2           2             4    7     1      -0.1131834432E-02       4    7    1        -0.6092657938E-01      0.1652500531E+00
          0                 3           1             4    7     1       0.7707370745E-04       4    7    1         0.4264860857E-02      0.1156736380E-01

    ------------------------------------------------
       NWT REQUIRED            3 OUTER ITERATIONS 
       AND A TOTAL OF          5 INNER ITERATIONS.
    ------------------------------------------------

 NO OUTPUT CONTROL FOR STRESS PERIOD   28   TIME STEP   18
 
 SOLVING FOR HEAD 
                                                   Max.-Head-Change                         Max.-Flux-Residual
  Residual-Control   Outer-Iter.   Inner-Iter.     Column Row Layer    Maximum-Head-Change  Column Row Layer    Maximum-Flux-Residual          L2-NORM 
          0                 1           2             4    7     1       0.1154638490E-01       4    7    1         0.6045690646E+00      0.1642740895E+01
          0                 2           2             4    7     1      -0.1123150774E-02       4    7    1        -0.6045706606E-01      0.1642727554E+00
          0                 3           1             4    7     1       0.7648238306E-04       4    7    1         0.4231994942E-02      0.1149898125E-01

    ------------------------------------------------
       NWT REQUIRED            3 OUTER ITERATIONS 
       AND A TOTAL OF          5 INNER ITERATIONS.
    ------------------------------------------------

 NO OUTPUT CONTROL FOR STRESS PERIOD   28   TIME STEP   19
 
 SOLVING FOR HEAD 
                                                   Max.-Head-Change                         Max.-Flux-Residual
  Residual-Control   Outer-Iter.   Inner-Iter.     Column Row Layer    Maximum-Head-Change  Column Row Layer    Maximum-Flux-Residual          L2-NORM 
          0                 1           2             4    7     1       0.1145823440E-01       4    7    1         0.5999331470E+00      0.1633074492E+01
          0                 2           2             4    7     1      -0.1114576090E-02       4    7    1        -0.5999347133E-01      0.1633060013E+00
          0                 3           1             4    7     1       0.7589847934E-04       4    7    1         0.4199543334E-02      0.1143122903E-01

    ------------------------------------------------
       NWT REQUIRED            3 OUTER ITERATIONS 
       AND A TOTAL OF          5 INNER ITERATIONS.
    ------------------------------------------------

 NO OUTPUT CONTROL FOR STRESS PERIOD   28   TIME STEP   20
 
 SOLVING FOR HEAD 
                                                   Max.-Head-Change                         Max.-Flux-Residual
  Residual-Control   Outer-Iter.   Inner-Iter.     Column Row Layer    Maximum-Head-Change  Column Row Layer    Maximum-Flux-Residual          L2-NORM 
          0                 1           2             4    7     1       0.1137118034E-01       4    7    1         0.5953553143E+00      0.1623507693E+01
          0                 2           2             4    7     1      -0.1106108060E-02       4    7    1        -0.5953568517E-01      0.1623494372E+00
          0                 3           1             4    7     1       0.7532183828E-04       4    7    1         0.4167498298E-02      0.1136432935E-01

    ------------------------------------------------
       NWT REQUIRED            3 OUTER ITERATIONS 
       AND A TOTAL OF          5 INNER ITERATIONS.
    ------------------------------------------------

 NO OUTPUT CONTROL FOR STRESS PERIOD   28   TIME STEP   21
 
 SOLVING FOR HEAD 
                                                   Max.-Head-Change                         Max.-Flux-Residual
  Residual-Control   Outer-Iter.   Inner-Iter.     Column Row Layer    Maximum-Head-Change  Column Row Layer    Maximum-Flux-Residual          L2-NORM 
          0                 1           2             4    7     1       0.1128506973E-01       4    7    1         0.5908269868E+00      0.1614041103E+01
          0                 2           2             4    7     1      -0.1097731805E-02       4    7    1        -0.5908284958E-01      0.1614027832E+00
          0                 3           1             4    7     1       0.7475144635E-04       4    7    1         0.4135799824E-02      0.1129808092E-01

    ------------------------------------------------
       NWT REQUIRED            3 OUTER ITERATIONS 
       AND A TOTAL OF          5 INNER ITERATIONS.
    ------------------------------------------------

 NO OUTPUT CONTROL FOR STRESS PERIOD   28   TIME STEP   22
 
 SOLVING FOR HEAD 
                                                   Max.-Head-Change                         Max.-Flux-Residual
  Residual-Control   Outer-Iter.   Inner-Iter.     Column Row Layer    Maximum-Head-Change  Column Row Layer    Maximum-Flux-Residual          L2-NORM 
          0                 1           2             4    7     1       0.1120001795E-01       4    7    1         0.5863549195E+00      0.1604672597E+01
          0                 2           2             4    7     1      -0.1089458544E-02       4    7    1        -0.5863564009E-01      0.1604659485E+00
          0                 3           1             4    7     1       0.7418806835E-04       4    7    1         0.4104495172E-02      0.1123247124E-01

    ------------------------------------------------
       NWT REQUIRED            3 OUTER ITERATIONS 
       AND A TOTAL OF          5 INNER ITERATIONS.
    ------------------------------------------------

 NO OUTPUT CONTROL FOR STRESS PERIOD   28   TIME STEP   23
 
 SOLVING FOR HEAD 
                                                   Max.-Head-Change                         Max.-Flux-Residual
  Residual-Control   Outer-Iter.   Inner-Iter.     Column Row Layer    Maximum-Head-Change  Column Row Layer    Maximum-Flux-Residual          L2-NORM 
          0                 1           2             4    7     1       0.1111600940E-01       4    7    1         0.5819377503E+00      0.1595404751E+01
          0                 2           2             4    7     1      -0.1081286763E-02       4    7    1        -0.5819392046E-01      0.1595391821E+00
          0                 3           1             4    7     1       0.7363160108E-04       4    7    1         0.4073574825E-02      0.1116764170E-01

    ------------------------------------------------
       NWT REQUIRED            3 OUTER ITERATIONS 
       AND A TOTAL OF          5 INNER ITERATIONS.
    ------------------------------------------------

 NO OUTPUT CONTROL FOR STRESS PERIOD   28   TIME STEP   24
 
 SOLVING FOR HEAD 
                                                   Max.-Head-Change                         Max.-Flux-Residual
  Residual-Control   Outer-Iter.   Inner-Iter.     Column Row Layer    Maximum-Head-Change  Column Row Layer    Maximum-Flux-Residual          L2-NORM 
          0                 1           2             4    7     1       0.1103302142E-01       4    7    1         0.5775746708E+00      0.1586231704E+01
          0                 2           2             4    7     1      -0.1073214256E-02       4    7    1        -0.5775760988E-01      0.1586218821E+00
          0                 3           1             4    7     1       0.7308189368E-04       4    7    1         0.4043033090E-02      0.1110340352E-01

    ------------------------------------------------
       NWT REQUIRED            3 OUTER ITERATIONS 
       AND A TOTAL OF          5 INNER ITERATIONS.
    ------------------------------------------------

 NO OUTPUT CONTROL FOR STRESS PERIOD   28   TIME STEP   25
 
 SOLVING FOR HEAD 
                                                   Max.-Head-Change                         Max.-Flux-Residual
  Residual-Control   Outer-Iter.   Inner-Iter.     Column Row Layer    Maximum-Head-Change  Column Row Layer    Maximum-Flux-Residual          L2-NORM 
          0                 1           2             4    7     1       0.1095089667E-01       4    7    1         0.5732571622E+00      0.1577143501E+01
          0                 2           2             4    7     1      -0.1065225719E-02       4    7    1        -0.5732585644E-01      0.1577130843E+00
          0                 3           1             4    7     1       0.7253790384E-04       4    7    1         0.4012810352E-02      0.1103981941E-01

    ------------------------------------------------
       NWT REQUIRED            3 OUTER ITERATIONS 
       AND A TOTAL OF          5 INNER ITERATIONS.
    ------------------------------------------------

 NO OUTPUT CONTROL FOR STRESS PERIOD   28   TIME STEP   26
 
 SOLVING FOR HEAD 
                                                   Max.-Head-Change                         Max.-Flux-Residual
  Residual-Control   Outer-Iter.   Inner-Iter.     Column Row Layer    Maximum-Head-Change  Column Row Layer    Maximum-Flux-Residual          L2-NORM 
          0                 1           2             4    7     1       0.1086976237E-01       4    7    1         0.5689917549E+00      0.1568156514E+01
          0                 2           2             4    7     1      -0.1057333527E-02       4    7    1        -0.5689931319E-01      0.1568143810E+00
          0                 3           1             4    7     1       0.7200047552E-04       4    7    1         0.3982952331E-02      0.1097688887E-01

    ------------------------------------------------
       NWT REQUIRED            3 OUTER ITERATIONS 
       AND A TOTAL OF          5 INNER ITERATIONS.
    ------------------------------------------------

 NO OUTPUT CONTROL FOR STRESS PERIOD   28   TIME STEP   27
 
 SOLVING FOR HEAD 
                                                   Max.-Head-Change                         Max.-Flux-Residual
  Residual-Control   Outer-Iter.   Inner-Iter.     Column Row Layer    Maximum-Head-Change  Column Row Layer    Maximum-Flux-Residual          L2-NORM 
          0                 1           2             4    7     1       0.1078959596E-01       4    7    1         0.5647777010E+00      0.1559263706E+01
          0                 2           2             4    7     1      -0.1049535484E-02       4    7    1        -0.5647790534E-01      0.1559250676E+00
          0                 3           1             4    7     1       0.7146945821E-04       4    7    1         0.3953453811E-02      0.1091463963E-01

    ------------------------------------------------
       NWT REQUIRED            3 OUTER ITERATIONS 
       AND A TOTAL OF          5 INNER ITERATIONS.
    ------------------------------------------------

 NO OUTPUT CONTROL FOR STRESS PERIOD   28   TIME STEP   28
 
 SOLVING FOR HEAD 
                                                   Max.-Head-Change                         Max.-Flux-Residual
  Residual-Control   Outer-Iter.   Inner-Iter.     Column Row Layer    Maximum-Head-Change  Column Row Layer    Maximum-Flux-Residual          L2-NORM 
          0                 1           2             4    7     1       0.1071038252E-01       4    7    1         0.5606138301E+00      0.1550460307E+01
          0                 2           2             4    7     1      -0.1041830141E-02       4    7    1        -0.5606151584E-01      0.1550447700E+00
          0                 3           1             4    7     1       0.7094475286E-04       4    7    1         0.3924306549E-02      0.1085300906E-01

    ------------------------------------------------
       NWT REQUIRED            3 OUTER ITERATIONS 
       AND A TOTAL OF          5 INNER ITERATIONS.
    ------------------------------------------------

 NO OUTPUT CONTROL FOR STRESS PERIOD   28   TIME STEP   29
 
 SOLVING FOR HEAD 
                                                   Max.-Head-Change                         Max.-Flux-Residual
  Residual-Control   Outer-Iter.   Inner-Iter.     Column Row Layer    Maximum-Head-Change  Column Row Layer    Maximum-Flux-Residual          L2-NORM 
          0                 1           2             4    7     1       0.1063210321E-01       4    7    1         0.5564993694E+00      0.1541745715E+01
          0                 2           2             4    7     1      -0.1034215664E-02       4    7    1        -0.5565006742E-01      0.1541733278E+00
          0                 3           1             4    7     1       0.7042623568E-04       4    7    1         0.3895505161E-02      0.1079202314E-01

    ------------------------------------------------
       NWT REQUIRED            3 OUTER ITERATIONS 
       AND A TOTAL OF          5 INNER ITERATIONS.
    ------------------------------------------------

 NO OUTPUT CONTROL FOR STRESS PERIOD   28   TIME STEP   30



 STREAM LISTING     PERIOD     28   STEP       30

 LAYER ROW COL. STREAM  RCH.  FLOW INTO     FLOW TO   FLOW OUT OF   OVRLND.     DIRECT     STREAM       STREAM     STREAM     STREAM   STREAMBED  STREAMBED
                SEG.NO.  NO.  STRM. RCH.    AQUIFER    STRM. RCH.    RUNOFF     PRECIP       ET          HEAD       DEPTH      WIDTH   CONDCTNC.   GRADIENT

   1    1    1     1     1    1.9000E+01  2.1427E-01   1.8786E+01  0.000E+00  0.000E+00  0.000E+00  1.09413E+03  1.082E+00  1.166E+01  5.249E-02  1.361E+00
   1    2    2     1     2    1.8786E+01  3.3054E-01   1.8455E+01  0.000E+00  0.000E+00  0.000E+00  1.08914E+03  1.077E+00  1.158E+01  8.107E-02  1.359E+00
   1    3    3     1     3    1.8455E+01  2.8064E-01   1.8175E+01  0.000E+00  0.000E+00  0.000E+00  1.08349E+03  1.072E+00  1.149E+01  6.892E-02  1.357E+00
   1    3    4     1     4    1.8175E+01  2.5740E-01   1.7917E+01  0.000E+00  0.000E+00  0.000E+00  1.07848E+03  1.068E+00  1.140E+01  6.328E-02  1.356E+00
   1    4    5     2     1    1.5917E+01  3.0542E-01   1.5612E+01  0.000E+00  0.000E+00  0.000E+00  1.07285E+03  9.157E-01  1.200E+01  7.800E-02  1.305E+00
   1    5    6     2     2    1.5612E+01  2.3438E-01   1.5377E+01  0.000E+00  0.000E+00  0.000E+00  1.06742E+03  9.063E-01  1.200E+01  6.000E-02  1.302E+00
   1    6    6     2     3    1.5377E+01  2.3388E-01   1.5143E+01  0.000E+00  0.000E+00  0.000E+00  1.06269E+03  8.980E-01  1.200E+01  6.000E-02  1.299E+00
   1    7    6     2     4    1.5143E+01  2.3338E-01   1.4910E+01  0.000E+00  0.000E+00  0.000E+00  1.05797E+03  8.897E-01  1.200E+01  6.000E-02  1.297E+00
   1    8    6     2     5    1.4910E+01  2.3289E-01   1.4677E+01  0.000E+00  0.000E+00  0.000E+00  1.05324E+03  8.814E-01  1.200E+01  6.000E-02  1.294E+00
   1    3    5     3     1    2.0000E+00  2.8252E-01   1.7175E+00  0.000E+00  0.000E+00  0.000E+00  1.07555E+03  1.909E+00  9.636E+00  7.227E-02  1.955E+00
   1    3    6     3     2    1.7175E+00  2.4905E-01   1.4684E+00  0.000E+00  0.000E+00  0.000E+00  1.07264E+03  1.727E+00  8.909E+00  6.682E-02  1.864E+00
   1    3    7     3     3    1.4684E+00  1.9718E-01   1.2712E+00  0.000E+00  0.000E+00  0.000E+00  1.06987E+03  1.555E+00  8.218E+00  5.547E-02  1.777E+00
   1    4    8     3     4    1.2712E+00  2.2567E-01   1.0456E+00  0.000E+00  0.000E+00  0.000E+00  1.06682E+03  1.364E+00  7.455E+00  6.709E-02  1.682E+00
   1    5    8     3     5    1.0456E+00  1.5790E-01   8.8768E-01  0.000E+00  0.000E+00  0.000E+00  1.06362E+03  1.164E+00  6.655E+00  4.991E-02  1.582E+00
   1    6    8     3     6    8.8768E-01  5.5980E-02   8.3170E-01  0.000E+00  0.000E+00  0.000E+00  1.06158E+03  1.036E+00  6.145E+00  1.844E-02  1.518E+00
   1    5   10     4     1    1.0000E+01  9.0919E-02   9.9091E+00  0.000E+00  0.000E+00  0.000E+00  1.07836E+03  6.368E-01  1.000E+01  2.500E-02  1.212E+00
   1    5    9     4     2    9.9091E+00  1.8158E-01   9.7275E+00  0.000E+00  0.000E+00  0.000E+00  1.07154E+03  6.315E-01  1.000E+01  5.000E-02  1.211E+00
   1    6    8     4     3    9.7275E+00  1.2689E-01   9.6006E+00  0.000E+00  0.000E+00  0.000E+00  1.06381E+03  6.256E-01  1.000E+01  3.500E-02  1.209E+00
   1    6    8     5     1    1.0432E+01  2.2686E-01   1.0205E+01  0.000E+00  0.000E+00  0.000E+00  1.05868E+03  6.790E-01  1.542E+01  6.166E-02  1.226E+00
   1    7    7     5     2    1.0205E+01  2.7894E-01   9.9265E+00  0.000E+00  0.000E+00  0.000E+00  1.05417E+03  6.732E-01  1.519E+01  7.594E-02  1.224E+00
   1    8    7     5     3    9.9265E+00  1.9221E-01   9.7343E+00  0.000E+00  0.000E+00  0.000E+00  1.04992E+03  6.676E-01  1.497E+01  5.241E-02  1.223E+00
   1    8    6     5     4    9.7343E+00  1.3577E-01   9.5985E+00  0.000E+00  0.000E+00  0.000E+00  1.04691E+03  6.637E-01  1.482E+01  3.706E-02  1.221E+00
   1    9    6     6     1    2.4276E+01  2.5176E-01   2.4024E+01  0.000E+00  0.000E+00  0.000E+00  1.04392E+03  1.196E+00  1.200E+01  6.000E-02  1.399E+00
   1   10    7     6     2    2.4024E+01  2.5131E-01   2.3773E+01  0.000E+00  0.000E+00  0.000E+00  1.03937E+03  1.188E+00  1.200E+01  6.000E-02  1.396E+00
   1   11    7     6     3    2.3773E+01  2.5086E-01   2.3522E+01  0.000E+00  0.000E+00  0.000E+00  1.03482E+03  1.181E+00  1.200E+01  6.000E-02  1.394E+00
   1   12    7     6     4    2.3522E+01  2.5041E-01   2.3271E+01  0.000E+00  0.000E+00  0.000E+00  1.03026E+03  1.173E+00  1.200E+01  6.000E-02  1.391E+00
   1   13    7     6     5    2.3271E+01  4.8649E-03   2.3267E+01  0.000E+00  0.000E+00  0.000E+00  1.02708E+03  1.170E+00  1.200E+01  2.400E-02  6.757E-02
   1   14    9     7     1    1.5000E+02  1.3419E+00   1.4866E+02  0.000E+00  0.000E+00  0.000E+00  1.03987E+03  2.288E+00  5.529E+01  5.593E-01  7.998E-01
   1   13    8     7     2    1.4866E+02  1.8808E+00   1.4678E+02  0.000E+00  0.000E+00  0.000E+00  1.03478E+03  2.279E+00  5.526E+01  6.148E-01  1.020E+00
   1   13    7     7     3    1.4678E+02  1.5710E+00   1.4521E+02  0.000E+00  0.000E+00  0.000E+00  1.02969E+03  2.270E+00  5.521E+01  5.584E-01  9.378E-01
   1   13    6     8     1    1.6847E+02  1.0200E+00   1.6745E+02  0.000E+00  0.000E+00  0.000E+00  1.02481E+03  2.939E+00  4.261E+01  4.342E-01  7.830E-01
   1   13    5     8     2    1.6745E+02  2.7426E-01   1.6718E+02  0.000E+00  0.000E+00  0.000E+00  1.01856E+03  2.935E+00  4.255E+01  4.336E-01  2.108E-01
   1   13    4     8     3    1.6718E+02 -2.0929E+00   1.6927E+02  0.000E+00  0.000E+00  0.000E+00  1.01232E+03  2.941E+00  4.264E+01  4.345E+00 -1.606E-01
   1   13    3     8     4    1.6927E+02 -3.4892E+00   1.7276E+02  0.000E+00  0.000E+00  0.000E+00  1.00608E+03  2.959E+00  4.290E+01  4.372E+00 -2.660E-01
   1   13    2     8     5    1.7276E+02 -2.5444E+00   1.7530E+02  0.000E+00  0.000E+00  0.000E+00  9.99853E+02  2.978E+00  4.318E+01  4.401E+00 -1.927E-01
   1   13    1     8     6    1.7530E+02 -1.9763E+00   1.7728E+02  0.000E+00  0.000E+00  0.000E+00  9.94868E+02  2.993E+00  4.339E+01  2.653E+00 -2.483E-01





UNSATURATED ZONE PACKAGE VOLUMETRIC BUDGET FOR  TIME STEP    30 STRESS PERIOD   28
  ------------------------------------------------------------------------------



     CUMULATIVE VOLUMES      L**3       RATES FOR THIS TIME STEP      L**3/T
     ------------------                 ------------------------

           IN:                                      IN:
           ---                                      ---
        INFILTRATION =   868055847.3384          INFILTRATION =           0.8475

          OUT:                                     OUT:
          ----                                     ----
              UZF ET =   866005391.0270                UZF ET =           0.7500
        UZF RECHARGE =       73224.0000          UZF RECHARGE =       0.0000E+00

            IN - OUT =     1977232.3114              IN - OUT =       9.7500E-02

          STORAGE:                                 STORAGE:
          --------                                 --------
      STORAGE CHANGE =     1977226.3077        STORAGE CHANGE =       9.7500E-02

 PERCENT DISCREPANCY IS DIFFERENCE BETWEEN IN-OUT MINUS CHANGE IN STORAGE
 DIVIDED BY THE AVERAGE OF IN AND OUT TIMES 100

 PERCENT DISCREPANCY =           0.00     PERCENT DISCREPANCY =           0.00






1
  VOLUMETRIC BUDGET FOR AGRICULTURAL FIELDS AT  END OF TIME STEP   30, STRESS PERIOD  28
  ------------------------------------------------------------------------------

     CUMULATIVE VOLUMES      L**3       RATES FOR THIS TIME STEP      L**3/T
     ------------------                 ------------------------

           IN:                                      IN:
           ---                                      ---
               AG WELLS  =   807799168.0000                 AG WELLS  =           0.0000
      DIVERSION SEGMENTS =           0.0000        DIVERSION SEGMENTS =           0.0000
       IRRIGATION PONDS  =           0.0000         IRRIGATION PONDS  =           0.0000
           GW IRRIGATION =           0.0000             GW IRRIGATION =           0.0000
           SW IRRIGATION =           0.0000             SW IRRIGATION =           0.0000
        SYSTEM LOSSES GW =           0.0000          SYSTEM LOSSES GW =           0.0000
        SYSTEM LOSSES SW =           0.0000          SYSTEM LOSSES SW =           0.0000

                TOTAL IN =   807799168.0000                  TOTAL IN =           0.0000

          OUT:                                     OUT:
          ----                                     ----
               AG WELLS  =           0.0000                 AG WELLS  =           0.0000
      DIVERSION SEGMENTS =           0.0000        DIVERSION SEGMENTS =           0.0000
       IRRIGATION PONDS  =           0.0000         IRRIGATION PONDS  =           0.0000
           GW IRRIGATION =   807799168.0000             GW IRRIGATION =           0.0000
           SW IRRIGATION =           0.0000             SW IRRIGATION =           0.0000
        SYSTEM LOSSES GW =           0.0000          SYSTEM LOSSES GW =           0.0000
        SYSTEM LOSSES SW =           0.0000          SYSTEM LOSSES SW =           0.0000

               TOTAL OUT =   807799168.0000                 TOTAL OUT =           0.0000

                IN - OUT =           0.0000                  IN - OUT =           0.0000

     PERCENT DISCREPANCY =           0.00         PERCENT DISCREPANCY =           0.00



1
  VOLUMETRIC BUDGET FOR ENTIRE MODEL AT END OF TIME STEP   30, STRESS PERIOD  28
  ------------------------------------------------------------------------------

     CUMULATIVE VOLUMES      L**3       RATES FOR THIS TIME STEP      L**3/T
     ------------------                 ------------------------

           IN:                                      IN:
           ---                                      ---
             STORAGE     =  1141419008.0000               STORAGE     =           4.5035
       CONSTANT HEAD     =           0.0000         CONSTANT HEAD     =           0.0000
     HEAD DEP BOUNDS     =    20300516.0000       HEAD DEP BOUNDS     =           0.2862
      STREAM LEAKAGE     =   877459136.0000        STREAM LEAKAGE     =          11.8215
        UZF RECHARGE     =       73223.9531          UZF RECHARGE     =           0.0000
               GW ET     =           0.0000                 GW ET     =           0.0000
     SURFACE LEAKAGE     =           0.0000       SURFACE LEAKAGE     =           0.0000
           AG WELLS      =           0.0000             AG WELLS      =           0.0000

                TOTAL IN =  2039251968.0000                  TOTAL IN =          16.6111

          OUT:                                     OUT:
          ----                                     ----
             STORAGE     =   456946528.0000               STORAGE     =           6.2196
       CONSTANT HEAD     =           0.0000         CONSTANT HEAD     =           0.0000
     HEAD DEP BOUNDS     =    20869190.0000       HEAD DEP BOUNDS     =           0.2893
      STREAM LEAKAGE     =   736040192.0000        STREAM LEAKAGE     =          10.1028
        UZF RECHARGE     =           0.0000          UZF RECHARGE     =           0.0000
               GW ET     =    17603406.0000                 GW ET     =           0.0000
     SURFACE LEAKAGE     =           0.0000       SURFACE LEAKAGE     =           0.0000
           AG WELLS      =   807799168.0000             AG WELLS      =           0.0000

               TOTAL OUT =  2039258496.0000                 TOTAL OUT =          16.6116

                IN - OUT =       -6528.0000                  IN - OUT =      -4.8637E-04

     PERCENT DISCREPANCY =          -0.00         PERCENT DISCREPANCY =          -0.00






         TIME SUMMARY AT END OF TIME STEP   30 IN STRESS PERIOD   28
                    SECONDS     MINUTES      HOURS       DAYS        YEARS
                    -----------------------------------------------------------
   TIME STEP LENGTH  87667.      1461.1      24.352      1.0147     2.77799E-03
 STRESS PERIOD TIME 2.63000E+06  43833.      730.56      30.440     8.33397E-02
         TOTAL TIME 7.10967E+07 1.18494E+06  19749.      822.88      2.2529    
1
1
                            STRESS PERIOD NO.   29, LENGTH =   2630000.    
                            -----------------------------------------------

                              NUMBER OF TIME STEPS =    30

                               MULTIPLIER FOR DELT =     1.000

                            INITIAL TIME STEP SIZE =   87666.66    

 REUSING NON-PARAMETER GHB CELLS FROM LAST STRESS PERIOD

      2 GHB CELLS

 REUSING STREAM SEGMENT DATA FROM LAST STRESS PERIOD



            AREAL INFILTRATION RATE
 READING ON UNIT   19 WITH FORMAT: (FREE)              

            1           2           3           4           5           6           7           8           9          10
 ........................................................................................................................
   1   1.0000E-10  2.0000E-10   0.000       0.000       0.000       0.000       0.000       0.000       0.000       0.000    
   2   2.0000E-10  1.0000E-10  2.0000E-10   0.000       0.000      8.0000E-10  8.0000E-10  5.0000E-10   0.000       0.000    
   3    0.000      5.0000E-10  1.0000E-10  1.0000E-10  8.0000E-10  8.0000E-10  5.0000E-10  5.0000E-10   0.000       0.000    
   4   8.0000E-10  5.0000E-10  1.0000E-10  1.0000E-10  1.0000E-10  1.0000E-10  1.0000E-10  1.0000E-10  2.0000E-10   0.000    
   5   8.0000E-10  5.0000E-10  1.0000E-10  1.0000E-10  1.0000E-10  1.0000E-10  1.0000E-10  1.0000E-10  1.0000E-10  1.0000E-10
   6   8.0000E-10  5.0000E-10  5.0000E-10  2.0000E-10  2.0000E-10  1.0000E-10  1.0000E-10  1.0000E-10  1.0000E-10  5.0000E-10
   7   8.0000E-10  5.0000E-10  5.0000E-10  2.0000E-10  2.0000E-10  1.0000E-10  1.0000E-10  2.0000E-10  2.0000E-10   0.000    
   8    0.000      5.0000E-10  5.0000E-10  2.0000E-10  2.0000E-10  1.0000E-10  1.0000E-10  2.0000E-10  5.0000E-10   0.000    
   9    0.000      5.0000E-10  5.0000E-10  2.0000E-10  2.0000E-10  1.0000E-10  1.0000E-10  2.0000E-10  5.0000E-10   0.000    
  10    0.000      5.0000E-10  5.0000E-10  2.0000E-10  2.0000E-10  1.0000E-10  1.0000E-10  2.0000E-10  5.0000E-10  8.0000E-10
  11    0.000      1.0000E-10  1.0000E-10  1.0000E-10  1.0000E-10  1.0000E-10  1.0000E-10  2.0000E-10  5.0000E-10   0.000    
  12   1.0000E-10  1.0000E-10  1.0000E-10  1.0000E-10  1.0000E-10  1.0000E-10  1.0000E-10  1.0000E-10  2.0000E-10   0.000    
  13   1.0000E-10  1.0000E-10  2.0000E-10  2.0000E-10  2.0000E-10  2.0000E-10  2.0000E-10  1.0000E-10  1.0000E-10   0.000    
  14    0.000      2.0000E-10  5.0000E-10  5.0000E-10  5.0000E-10  5.0000E-10  5.0000E-10  2.0000E-10  1.0000E-10   0.000    
  15    0.000       0.000      8.0000E-10  8.0000E-10  8.0000E-10  8.0000E-10   0.000       0.000       0.000       0.000    

                  ET RATE =  2.500000E-08

 USING ET EXTINCTION DEPTH FROM PREVIOUS STRESS PERIOD. CURRENT PERIOD IS:      29

 USING EXTINCTION WATER CONTENT FROM PREVIOUS STRESS PERIOD. CURRENT PERIOD IS:      29

 USING AIR ENTRY PRESSURE FROM PREVIOUS STRESS PERIOD. CURRENT PERIOD IS:      29

 USING ROOT PRESSURE HEAD FROM PREVIOUS STRESS PERIOD. CURRENT PERIOD IS:      29

 USING ROOT ACTIVITY FROM PREVIOUS STRESS PERIOD. CURRENT PERIOD IS:      29

 PROCESSING AG STRESS PERIOD DATA

 READING AG STRESS PERIOD DATA

 READING IRRIGATION WELL

 NO IRRPOND OR REUSING IRRPOND DATA FROM LAST STRESS PERIOD

 END PROCESSING AG STRESS PERIOD DATA OPTIONS
 
 SOLVING FOR HEAD 
                                                   Max.-Head-Change                         Max.-Flux-Residual
  Residual-Control   Outer-Iter.   Inner-Iter.     Column Row Layer    Maximum-Head-Change  Column Row Layer    Maximum-Flux-Residual          L2-NORM 
          0                 1           2             3    7     1       0.8774561892E-02       4    9    1         0.2944306156E+00      0.1104273792E+01
          0                 2           2             3    7     1      -0.8535261229E-03       4    9    1        -0.2944308902E-01      0.1104256499E+00
          0                 3           1             3    7     1       0.5812202575E-04       4    9    1         0.2061016861E-02      0.7729634196E-02

    ------------------------------------------------
       NWT REQUIRED            3 OUTER ITERATIONS 
       AND A TOTAL OF          5 INNER ITERATIONS.
    ------------------------------------------------

 NO OUTPUT CONTROL FOR STRESS PERIOD   29   TIME STEP    1
 
 SOLVING FOR HEAD 
                                                   Max.-Head-Change                         Max.-Flux-Residual
  Residual-Control   Outer-Iter.   Inner-Iter.     Column Row Layer    Maximum-Head-Change  Column Row Layer    Maximum-Flux-Residual          L2-NORM 
          0                 1           2             4    7     1       0.1054732406E-01       4    7    1         0.5517462148E+00      0.1533821188E+01
          0                 2           2             4    7     1      -0.1256818539E-01       4    7    1        -0.6750234716E+00      0.1637003551E+01
          0                 3           2             4    7     1       0.8558442855E-03       4    7    1         0.4725150145E-01      0.1145898529E+00
          0                 4           1             4    7     1      -0.3405485724E-04       4    7    1        -0.1932589851E-02      0.4686733487E-02

    ------------------------------------------------
       NWT REQUIRED            4 OUTER ITERATIONS 
       AND A TOTAL OF          7 INNER ITERATIONS.
    ------------------------------------------------

 NO OUTPUT CONTROL FOR STRESS PERIOD   29   TIME STEP    2
 
 SOLVING FOR HEAD 
                                                   Max.-Head-Change                         Max.-Flux-Residual
  Residual-Control   Outer-Iter.   Inner-Iter.     Column Row Layer    Maximum-Head-Change  Column Row Layer    Maximum-Flux-Residual          L2-NORM 
          0                 1           2             4    7     1       0.1054478046E-01       4    7    1         0.5513381735E+00      0.1535194030E+01
          0                 2           2             4    7     1      -0.1256798351E-01       4    7    1        -0.6749850981E+00      0.1638857593E+01
          0                 3           2             4    7     1       0.8558305510E-03       4    7    1         0.4724881614E-01      0.1147196348E+00
          0                 4           1             4    7     1      -0.3405431062E-04       4    7    1        -0.1932480017E-02      0.4692046985E-02

    ------------------------------------------------
       NWT REQUIRED            4 OUTER ITERATIONS 
       AND A TOTAL OF          7 INNER ITERATIONS.
    ------------------------------------------------

 NO OUTPUT CONTROL FOR STRESS PERIOD   29   TIME STEP    3
 
 SOLVING FOR HEAD 
                                                   Max.-Head-Change                         Max.-Flux-Residual
  Residual-Control   Outer-Iter.   Inner-Iter.     Column Row Layer    Maximum-Head-Change  Column Row Layer    Maximum-Flux-Residual          L2-NORM 
          0                 1           2             4    7     1       0.1054726631E-01       4    7    1         0.5512136503E+00      0.1537184717E+01
          0                 2           2             4    7     1      -0.1256827001E-01       4    7    1        -0.6749750246E+00      0.1640635439E+01
          0                 3           2             4    7     1       0.8558500718E-03       4    7    1         0.4724811174E-01      0.1148440848E+00
          0                 4           1             4    7     1      -0.3405508738E-04       4    7    1        -0.1932451214E-02      0.4697130321E-02

    ------------------------------------------------
       NWT REQUIRED            4 OUTER ITERATIONS 
       AND A TOTAL OF          7 INNER ITERATIONS.
    ------------------------------------------------

 NO OUTPUT CONTROL FOR STRESS PERIOD   29   TIME STEP    4
 
 SOLVING FOR HEAD 
                                                   Max.-Head-Change                         Max.-Flux-Residual
  Residual-Control   Outer-Iter.   Inner-Iter.     Column Row Layer    Maximum-Head-Change  Column Row Layer    Maximum-Flux-Residual          L2-NORM 
          0                 1           2             4    7     1       0.1055409061E-01       4    7    1         0.5513351973E+00      0.1539679835E+01
          0                 2           2             4    7     1      -0.1256897751E-01       4    7    1        -0.6749894990E+00      0.1642338565E+01
          0                 3           2             4    7     1       0.8558982592E-03       4    7    1         0.4724912560E-01      0.1149633050E+00
          0                 4           1             4    7     1      -0.3405700460E-04       4    7    1        -0.1932492652E-02      0.4702007352E-02

    ------------------------------------------------
       NWT REQUIRED            4 OUTER ITERATIONS 
       AND A TOTAL OF          7 INNER ITERATIONS.
    ------------------------------------------------

 NO OUTPUT CONTROL FOR STRESS PERIOD   29   TIME STEP    5
 
 SOLVING FOR HEAD 
                                                   Max.-Head-Change                         Max.-Flux-Residual
  Residual-Control   Outer-Iter.   Inner-Iter.     Column Row Layer    Maximum-Head-Change  Column Row Layer    Maximum-Flux-Residual          L2-NORM 
          0                 1           2             4    7     1       0.1056514303E-01       4    7    1         0.5516963736E+00      0.1542599800E+01
          0                 2           2             4    7     1      -0.1257009528E-01       4    7    1        -0.6750278770E+00      0.1643971802E+01
          0                 3           2             4    7     1       0.8559743848E-03       4    7    1         0.4725181270E-01      0.1150776267E+00
          0                 4           1             4    7     1      -0.3406003384E-04       4    7    1        -0.1932602576E-02      0.4706683820E-02

    ------------------------------------------------
       NWT REQUIRED            4 OUTER ITERATIONS 
       AND A TOTAL OF          7 INNER ITERATIONS.
    ------------------------------------------------

 NO OUTPUT CONTROL FOR STRESS PERIOD   29   TIME STEP    6
 
 SOLVING FOR HEAD 
                                                   Max.-Head-Change                         Max.-Flux-Residual
  Residual-Control   Outer-Iter.   Inner-Iter.     Column Row Layer    Maximum-Head-Change  Column Row Layer    Maximum-Flux-Residual          L2-NORM 
          0                 1           2             4    7     1       0.1057978514E-01       4    7    1         0.5522620796E+00      0.1545860481E+01
          0                 2           2             4    7     1      -0.1257156230E-01       4    7    1        -0.6750867084E+00      0.1645537813E+01
          0                 3           2             4    7     1       0.8560742918E-03       4    7    1         0.4725593144E-01      0.1151872489E+00
          0                 4           1             4    7     1      -0.3406400874E-04       4    7    1        -0.1932771019E-02      0.4711166839E-02

    ------------------------------------------------
       NWT REQUIRED            4 OUTER ITERATIONS 
       AND A TOTAL OF          7 INNER ITERATIONS.
    ------------------------------------------------

 NO OUTPUT CONTROL FOR STRESS PERIOD   29   TIME STEP    7
 
 SOLVING FOR HEAD 
                                                   Max.-Head-Change                         Max.-Flux-Residual
  Residual-Control   Outer-Iter.   Inner-Iter.     Column Row Layer    Maximum-Head-Change  Column Row Layer    Maximum-Flux-Residual          L2-NORM 
          0                 1           2             4    7     1       0.1059794810E-01       4    7    1         0.5530285945E+00      0.1549392079E+01
          0                 2           2             4    7     1      -0.1257337078E-01       4    7    1        -0.6751655615E+00      0.1647039368E+01
          0                 3           2             4    7     1       0.8561974501E-03       4    7    1         0.4726145167E-01      0.1152923583E+00
          0                 4           1             4    7     1      -0.3406890949E-04       4    7    1        -0.1932996798E-02      0.4715465859E-02

    ------------------------------------------------
       NWT REQUIRED            4 OUTER ITERATIONS 
       AND A TOTAL OF          7 INNER ITERATIONS.
    ------------------------------------------------

 NO OUTPUT CONTROL FOR STRESS PERIOD   29   TIME STEP    8
 
 SOLVING FOR HEAD 
                                                   Max.-Head-Change                         Max.-Flux-Residual
  Residual-Control   Outer-Iter.   Inner-Iter.     Column Row Layer    Maximum-Head-Change  Column Row Layer    Maximum-Flux-Residual          L2-NORM 
          0                 1           2             4    7     1       0.1061916982E-01       4    7    1         0.5539703128E+00      0.1553141844E+01
          0                 2           2             4    7     1      -0.1257547686E-01       4    7    1        -0.6752619353E+00      0.1648479811E+01
          0                 3           2             4    7     1       0.8563408727E-03       4    7    1         0.4726819827E-01      0.1153931862E+00
          0                 4           1             4    7     1      -0.3407461659E-04       4    7    1        -0.1933272731E-02      0.4719588929E-02

    ------------------------------------------------
       NWT REQUIRED            4 OUTER ITERATIONS 
       AND A TOTAL OF          7 INNER ITERATIONS.
    ------------------------------------------------

 NO OUTPUT CONTROL FOR STRESS PERIOD   29   TIME STEP    9
 
 SOLVING FOR HEAD 
                                                   Max.-Head-Change                         Max.-Flux-Residual
  Residual-Control   Outer-Iter.   Inner-Iter.     Column Row Layer    Maximum-Head-Change  Column Row Layer    Maximum-Flux-Residual          L2-NORM 
          0                 1           2             4    7     1       0.1064314961E-01       4    7    1         0.5550706225E+00      0.1557053474E+01
          0                 2           2             4    7     1      -0.1257785017E-01       4    7    1        -0.6753741089E+00      0.1649861407E+01
          0                 3           2             4    7     1       0.8565024926E-03       4    7    1         0.4727605082E-01      0.1154898974E+00
          0                 4           1             4    7     1      -0.3408104774E-04       4    7    1        -0.1933593903E-02      0.4723544573E-02

    ------------------------------------------------
       NWT REQUIRED            4 OUTER ITERATIONS 
       AND A TOTAL OF          7 INNER ITERATIONS.
    ------------------------------------------------

 NO OUTPUT CONTROL FOR STRESS PERIOD   29   TIME STEP   10
 
 SOLVING FOR HEAD 
                                                   Max.-Head-Change                         Max.-Flux-Residual
  Residual-Control   Outer-Iter.   Inner-Iter.     Column Row Layer    Maximum-Head-Change  Column Row Layer    Maximum-Flux-Residual          L2-NORM 
          0                 1           2             4    7     1       0.1066974133E-01       4    7    1         0.5563212847E+00      0.1561082153E+01
          0                 2           2             4    7     1      -0.1258047664E-01       4    7    1        -0.6755012658E+00      0.1651186870E+01
          0                 3           2             4    7     1       0.8566813502E-03       4    7    1         0.4728495215E-01      0.1155826752E+00
          0                 4           1             4    7     1      -0.3408816446E-04       4    7    1        -0.1933957967E-02      0.4727340290E-02

    ------------------------------------------------
       NWT REQUIRED            4 OUTER ITERATIONS 
       AND A TOTAL OF          7 INNER ITERATIONS.
    ------------------------------------------------

 NO OUTPUT CONTROL FOR STRESS PERIOD   29   TIME STEP   11
 
 SOLVING FOR HEAD 
                                                   Max.-Head-Change                         Max.-Flux-Residual
  Residual-Control   Outer-Iter.   Inner-Iter.     Column Row Layer    Maximum-Head-Change  Column Row Layer    Maximum-Flux-Residual          L2-NORM 
          0                 1           2             4    7     1       0.1069853865E-01       4    7    1         0.5577000106E+00      0.1565203015E+01
          0                 2           2             4    7     1      -0.1258331756E-01       4    7    1        -0.6756412221E+00      0.1652458839E+01
          0                 3           2             4    7     1       0.8568748109E-03       4    7    1         0.4729474939E-01      0.1156717177E+00
          0                 4           1             4    7     1      -0.3409586247E-04       4    7    1        -0.1934358678E-02      0.4730981857E-02

    ------------------------------------------------
       NWT REQUIRED            4 OUTER ITERATIONS 
       AND A TOTAL OF          7 INNER ITERATIONS.
    ------------------------------------------------

 NO OUTPUT CONTROL FOR STRESS PERIOD   29   TIME STEP   12
 
 SOLVING FOR HEAD 
                                                   Max.-Head-Change                         Max.-Flux-Residual
  Residual-Control   Outer-Iter.   Inner-Iter.     Column Row Layer    Maximum-Head-Change  Column Row Layer    Maximum-Flux-Residual          L2-NORM 
          0                 1           2             4    7     1       0.1072943280E-01       4    8    1         0.5612105313E+00      0.1569372094E+01
          0                 2           2             4    7     1      -0.1258636138E-01       4    8    1        -0.6759944366E+00      0.1653679663E+01
          0                 3           2             4    7     1       0.8570820877E-03       4    8    1         0.4731919103E-01      0.1157571738E+00
          0                 4           1             4    7     1      -0.3410411021E-04       4    8    1        -0.1935359645E-02      0.4734476785E-02

    ------------------------------------------------
       NWT REQUIRED            4 OUTER ITERATIONS 
       AND A TOTAL OF          7 INNER ITERATIONS.
    ------------------------------------------------

 NO OUTPUT CONTROL FOR STRESS PERIOD   29   TIME STEP   13
 
 SOLVING FOR HEAD 
                                                   Max.-Head-Change                         Max.-Flux-Residual
  Residual-Control   Outer-Iter.   Inner-Iter.     Column Row Layer    Maximum-Head-Change  Column Row Layer    Maximum-Flux-Residual          L2-NORM 
          0                 1           2             4    8     1       0.1077545122E-01       4    8    1         0.5657768347E+00      0.1573564654E+01
          0                 2           2             4    7     1      -0.1258957271E-01       4    8    1        -0.6764530937E+00      0.1654851098E+01
          0                 3           2             4    7     1       0.8573007700E-03       4    8    1         0.4735129607E-01      0.1158391739E+00
          0                 4           1             4    7     1      -0.3411281156E-04       4    8    1        -0.1936672761E-02      0.4737830383E-02

    ------------------------------------------------
       NWT REQUIRED            4 OUTER ITERATIONS 
       AND A TOTAL OF          7 INNER ITERATIONS.
    ------------------------------------------------

 NO OUTPUT CONTROL FOR STRESS PERIOD   29   TIME STEP   14
 
 SOLVING FOR HEAD 
                                                   Max.-Head-Change                         Max.-Flux-Residual
  Residual-Control   Outer-Iter.   Inner-Iter.     Column Row Layer    Maximum-Head-Change  Column Row Layer    Maximum-Flux-Residual          L2-NORM 
          0                 1           2             4    8     1       0.1085704954E-01       4    8    1         0.5701786816E+00      0.1577766693E+01
          0                 2           2             4    7     1      -0.1259294339E-01       4    8    1        -0.6768952600E+00      0.1655976257E+01
          0                 3           2             4    7     1       0.8575303034E-03       4    8    1         0.4738224683E-01      0.1159179347E+00
          0                 4           1             4    7     1      -0.3412194509E-04       4    8    1        -0.1937938651E-02      0.4741051774E-02

    ------------------------------------------------
       NWT REQUIRED            4 OUTER ITERATIONS 
       AND A TOTAL OF          7 INNER ITERATIONS.
    ------------------------------------------------

 NO OUTPUT CONTROL FOR STRESS PERIOD   29   TIME STEP   15
 
 SOLVING FOR HEAD 
                                                   Max.-Head-Change                         Max.-Flux-Residual
  Residual-Control   Outer-Iter.   Inner-Iter.     Column Row Layer    Maximum-Head-Change  Column Row Layer    Maximum-Flux-Residual          L2-NORM 
          0                 1           2             4    8     1       0.1093559339E-01       4    8    1         0.5744158402E+00      0.1581954496E+01
          0                 2           2             4    7     1      -0.1259644014E-01       4    8    1        -0.6773208903E+00      0.1657056266E+01
          0                 3           2             4    7     1       0.8577684213E-03       4    8    1         0.4741204010E-01      0.1159935335E+00
          0                 4           1             4    7     1      -0.3413141963E-04       4    8    1        -0.1939157185E-02      0.4744143562E-02

    ------------------------------------------------
       NWT REQUIRED            4 OUTER ITERATIONS 
       AND A TOTAL OF          7 INNER ITERATIONS.
    ------------------------------------------------

 NO OUTPUT CONTROL FOR STRESS PERIOD   29   TIME STEP   16
 
 SOLVING FOR HEAD 
                                                   Max.-Head-Change                         Max.-Flux-Residual
  Residual-Control   Outer-Iter.   Inner-Iter.     Column Row Layer    Maximum-Head-Change  Column Row Layer    Maximum-Flux-Residual          L2-NORM 
          0                 1           2             4    8     1       0.1101119733E-01       4    8    1         0.5784946334E+00      0.1586102302E+01
          0                 2           2             4    7     1      -0.1260004613E-01       4    8    1        -0.6777306766E+00      0.1658093260E+01
          0                 3           2             4    7     1       0.8580139780E-03       4    8    1         0.4744072429E-01      0.1160661228E+00
          0                 4           1             4    7     1      -0.3414119086E-04       4    8    1        -0.1940330377E-02      0.4747112674E-02

    ------------------------------------------------
       NWT REQUIRED            4 OUTER ITERATIONS 
       AND A TOTAL OF          7 INNER ITERATIONS.
    ------------------------------------------------

 NO OUTPUT CONTROL FOR STRESS PERIOD   29   TIME STEP   17
 
 SOLVING FOR HEAD 
                                                   Max.-Head-Change                         Max.-Flux-Residual
  Residual-Control   Outer-Iter.   Inner-Iter.     Column Row Layer    Maximum-Head-Change  Column Row Layer    Maximum-Flux-Residual          L2-NORM 
          0                 1           2             4    8     1       0.1108397583E-01       4    8    1         0.5824210149E+00      0.1590203042E+01
          0                 2           2             4    7     1      -0.1260375818E-01       4    8    1        -0.6781252288E+00      0.1659089237E+01
          0                 3           2             4    7     1       0.8582667563E-03       4    8    1         0.4746834215E-01      0.1161358424E+00
          0                 4           1             4    7     1      -0.3415124875E-04       4    8    1        -0.1941459958E-02      0.4749964624E-02

    ------------------------------------------------
       NWT REQUIRED            4 OUTER ITERATIONS 
       AND A TOTAL OF          7 INNER ITERATIONS.
    ------------------------------------------------

 NO OUTPUT CONTROL FOR STRESS PERIOD   29   TIME STEP   18
 
 SOLVING FOR HEAD 
                                                   Max.-Head-Change                         Max.-Flux-Residual
  Residual-Control   Outer-Iter.   Inner-Iter.     Column Row Layer    Maximum-Head-Change  Column Row Layer    Maximum-Flux-Residual          L2-NORM 
          0                 1           2             4    8     1       0.1115416017E-01       4    8    1         0.5862073584E+00      0.1594254891E+01
          0                 2           2             4    7     1      -0.1260755922E-01       4    8    1        -0.6785057174E+00      0.1660046835E+01
          0                 3           2             4    7     1       0.8585255933E-03       4    8    1         0.4749497558E-01      0.1162028740E+00
          0                 4           1             4    7     1      -0.3416154887E-04       4    8    1        -0.1942549265E-02      0.4752706677E-02

    ------------------------------------------------
       NWT REQUIRED            4 OUTER ITERATIONS 
       AND A TOTAL OF          7 INNER ITERATIONS.
    ------------------------------------------------

 NO OUTPUT CONTROL FOR STRESS PERIOD   29   TIME STEP   19
 
 SOLVING FOR HEAD 
                                                   Max.-Head-Change                         Max.-Flux-Residual
  Residual-Control   Outer-Iter.   Inner-Iter.     Column Row Layer    Maximum-Head-Change  Column Row Layer    Maximum-Flux-Residual          L2-NORM 
          0                 1           2             4    8     1       0.1122161298E-01       4    8    1         0.5898462886E+00      0.1598238269E+01
          0                 2           2             4    7     1      -0.1261142134E-01       4    8    1        -0.6788714121E+00      0.1660966055E+01
          0                 3           2             4    7     1       0.8587885903E-03       4    8    1         0.4752057348E-01      0.1162672186E+00
          0                 4           1             4    7     1      -0.3417201351E-04       4    8    1        -0.1943596237E-02      0.4755337247E-02

    ------------------------------------------------
       NWT REQUIRED            4 OUTER ITERATIONS 
       AND A TOTAL OF          7 INNER ITERATIONS.
    ------------------------------------------------

 NO OUTPUT CONTROL FOR STRESS PERIOD   29   TIME STEP   20
 
 SOLVING FOR HEAD 
                                                   Max.-Head-Change                         Max.-Flux-Residual
  Residual-Control   Outer-Iter.   Inner-Iter.     Column Row Layer    Maximum-Head-Change  Column Row Layer    Maximum-Flux-Residual          L2-NORM 
          0                 1           2             4    8     1       0.1128656241E-01       4    8    1         0.5933500338E+00      0.1602149519E+01
          0                 2           2             4    7     1      -0.1261534541E-01       4    8    1        -0.6792235736E+00      0.1661849813E+01
          0                 3           2             4    7     1       0.8569848741E-03       4    8    1         0.4754522404E-01      0.1162710889E+00
          0                 4           1             4    7     1      -0.3410023513E-04       4    8    1        -0.1944604458E-02      0.4755495502E-02

    ------------------------------------------------
       NWT REQUIRED            4 OUTER ITERATIONS 
       AND A TOTAL OF          7 INNER ITERATIONS.
    ------------------------------------------------

 NO OUTPUT CONTROL FOR STRESS PERIOD   29   TIME STEP   21
 
 SOLVING FOR HEAD 
                                                   Max.-Head-Change                         Max.-Flux-Residual
  Residual-Control   Outer-Iter.   Inner-Iter.     Column Row Layer    Maximum-Head-Change  Column Row Layer    Maximum-Flux-Residual          L2-NORM 
          0                 1           2             4    8     1       0.1134920226E-01       4    8    1         0.5967288699E+00      0.1605946339E+01
          0                 2           2             4    7     1      -0.1261980955E-01       4    8    1        -0.6795631917E+00      0.1662709835E+01
          0                 3           2             4    7     1       0.8536590553E-03       4    8    1         0.4756899664E-01      0.1162481771E+00
          0                 4           1             4    7     1      -0.3396789745E-04       4    8    1        -0.1945576740E-02      0.4754558064E-02

    ------------------------------------------------
       NWT REQUIRED            4 OUTER ITERATIONS 
       AND A TOTAL OF          7 INNER ITERATIONS.
    ------------------------------------------------

 NO OUTPUT CONTROL FOR STRESS PERIOD   29   TIME STEP   22
 
 SOLVING FOR HEAD 
                                                   Max.-Head-Change                         Max.-Flux-Residual
  Residual-Control   Outer-Iter.   Inner-Iter.     Column Row Layer    Maximum-Head-Change  Column Row Layer    Maximum-Flux-Residual          L2-NORM 
          0                 1           2             4    8     1       0.1140930110E-01       4    8    1         0.5999735028E+00      0.1609632622E+01
          0                 2           2             4    7     1      -0.1262933417E-01       4    8    1        -0.6798893893E+00      0.1663501756E+01
          0                 3           2             4    7     1       0.8600097926E-03       4    8    1         0.4759182994E-01      0.1164447528E+00
          0                 4           1             4    7     1      -0.3422059943E-04       4    8    1        -0.1946510632E-02      0.4762598437E-02

    ------------------------------------------------
       NWT REQUIRED            4 OUTER ITERATIONS 
       AND A TOTAL OF          7 INNER ITERATIONS.
    ------------------------------------------------

 NO OUTPUT CONTROL FOR STRESS PERIOD   29   TIME STEP   23
 
 SOLVING FOR HEAD 
                                                   Max.-Head-Change                         Max.-Flux-Residual
  Residual-Control   Outer-Iter.   Inner-Iter.     Column Row Layer    Maximum-Head-Change  Column Row Layer    Maximum-Flux-Residual          L2-NORM 
          0                 1           2             4    8     1       0.1146714120E-01       4    8    1         0.6030959845E+00      0.1613233995E+01
          0                 2           2             4    7     1      -0.1263303851E-01       4    8    1        -0.6802033790E+00      0.1664278491E+01
          0                 3           2             4    7     1       0.8602620475E-03       4    8    1         0.4761380857E-01      0.1164991264E+00
          0                 4           1             4    7     1      -0.3423063671E-04       4    8    1        -0.1947409559E-02      0.4764821440E-02

    ------------------------------------------------
       NWT REQUIRED            4 OUTER ITERATIONS 
       AND A TOTAL OF          7 INNER ITERATIONS.
    ------------------------------------------------

 NO OUTPUT CONTROL FOR STRESS PERIOD   29   TIME STEP   24
 
 SOLVING FOR HEAD 
                                                   Max.-Head-Change                         Max.-Flux-Residual
  Residual-Control   Outer-Iter.   Inner-Iter.     Column Row Layer    Maximum-Head-Change  Column Row Layer    Maximum-Flux-Residual          L2-NORM 
          0                 1           2             4    8     1       0.1152281345E-01       5    8    1         0.6062511623E+00      0.1616742988E+01
          0                 2           2             4    7     1      -0.1263678461E-01       5    8    1        -0.6805205623E+00      0.1665025269E+01
          0                 3           2             4    7     1       0.8605171457E-03       5    8    1         0.4763611701E-01      0.1165513987E+00
          0                 4           1             4    7     1      -0.3424078774E-04       5    8    1        -0.1948321482E-02      0.4766960893E-02

    ------------------------------------------------
       NWT REQUIRED            4 OUTER ITERATIONS 
       AND A TOTAL OF          7 INNER ITERATIONS.
    ------------------------------------------------

 NO OUTPUT CONTROL FOR STRESS PERIOD   29   TIME STEP   25
 
 SOLVING FOR HEAD 
                                                   Max.-Head-Change                         Max.-Flux-Residual
  Residual-Control   Outer-Iter.   Inner-Iter.     Column Row Layer    Maximum-Head-Change  Column Row Layer    Maximum-Flux-Residual          L2-NORM 
          0                 1           2             4    8     1       0.1157640889E-01       5    8    1         0.6097930958E+00      0.1620158723E+01
          0                 2           2             4    7     1      -0.1264056320E-01       5    8    1        -0.6808764287E+00      0.1665742983E+01
          0                 3           2             4    7     1       0.8607744554E-03       5    8    1         0.4766102727E-01      0.1166016395E+00
          0                 4           1             4    7     1      -0.3425102604E-04       5    8    1        -0.1949340324E-02      0.4769015512E-02

    ------------------------------------------------
       NWT REQUIRED            4 OUTER ITERATIONS 
       AND A TOTAL OF          7 INNER ITERATIONS.
    ------------------------------------------------

 NO OUTPUT CONTROL FOR STRESS PERIOD   29   TIME STEP   26
 
 SOLVING FOR HEAD 
                                                   Max.-Head-Change                         Max.-Flux-Residual
  Residual-Control   Outer-Iter.   Inner-Iter.     Column Row Layer    Maximum-Head-Change  Column Row Layer    Maximum-Flux-Residual          L2-NORM 
          0                 1           2             4    8     1       0.1162801298E-01       5    8    1         0.6131421960E+00      0.1623482868E+01
          0                 2           2             4    7     1      -0.1264435060E-01       5    8    1        -0.6812129520E+00      0.1666433416E+01
          0                 3           2             4    7     1       0.8610323656E-03       5    8    1         0.4768458356E-01      0.1166499688E+00
          0                 4           1             4    7     1      -0.3426128851E-04       5    8    1        -0.1950303780E-02      0.4770991828E-02

    ------------------------------------------------
       NWT REQUIRED            4 OUTER ITERATIONS 
       AND A TOTAL OF          7 INNER ITERATIONS.
    ------------------------------------------------

 NO OUTPUT CONTROL FOR STRESS PERIOD   29   TIME STEP   27
 
 SOLVING FOR HEAD 
                                                   Max.-Head-Change                         Max.-Flux-Residual
  Residual-Control   Outer-Iter.   Inner-Iter.     Column Row Layer    Maximum-Head-Change  Column Row Layer    Maximum-Flux-Residual          L2-NORM 
          0                 1           2             4    8     1       0.1167758648E-01       5    8    1         0.6163102526E+00      0.1626706275E+01
          0                 2           2             4    7     1      -0.1264815203E-01       5    8    1        -0.6815313780E+00      0.1667097246E+01
          0                 3           2             4    7     1       0.8612912312E-03       5    8    1         0.4770687305E-01      0.1166964437E+00
          0                 4           1             4    7     1      -0.3427158910E-04       5    8    1        -0.1951215419E-02      0.4772893204E-02

    ------------------------------------------------
       NWT REQUIRED            4 OUTER ITERATIONS 
       AND A TOTAL OF          7 INNER ITERATIONS.
    ------------------------------------------------

 NO OUTPUT CONTROL FOR STRESS PERIOD   29   TIME STEP   28
 
 SOLVING FOR HEAD 
                                                   Max.-Head-Change                         Max.-Flux-Residual
  Residual-Control   Outer-Iter.   Inner-Iter.     Column Row Layer    Maximum-Head-Change  Column Row Layer    Maximum-Flux-Residual          L2-NORM 
          0                 1           2             4    8     1       0.1172533291E-01       5    8    1         0.6193082181E+00      0.1629835474E+01
          0                 2           2             4    7     1      -0.1265194526E-01       5    8    1        -0.6818327277E+00      0.1667735747E+01
          0                 3           2             4    7     1       0.8615495379E-03       5    8    1         0.4772796721E-01      0.1167411318E+00
          0                 4           1             4    7     1      -0.3428186757E-04       5    8    1        -0.1952078179E-02      0.4774719509E-02

    ------------------------------------------------
       NWT REQUIRED            4 OUTER ITERATIONS 
       AND A TOTAL OF          7 INNER ITERATIONS.
    ------------------------------------------------

 NO OUTPUT CONTROL FOR STRESS PERIOD   29   TIME STEP   29
 
 SOLVING FOR HEAD 
                                                   Max.-Head-Change                         Max.-Flux-Residual
  Residual-Control   Outer-Iter.   Inner-Iter.     Column Row Layer    Maximum-Head-Change  Column Row Layer    Maximum-Flux-Residual          L2-NORM 
          0                 1           2             4    8     1       0.1177132706E-01       5    8    1         0.6221461975E+00      0.1632874409E+01
          0                 2           2             4    7     1      -0.1265573741E-01       5    8    1        -0.6821180712E+00      0.1668350182E+01
          0                 3           2             4    7     1       0.8618077707E-03       5    8    1         0.4774794101E-01      0.1167841438E+00
          0                 4           1             4    7     1      -0.3429214283E-04       5    8    1        -0.1952895111E-02      0.4776480475E-02

    ------------------------------------------------
       NWT REQUIRED            4 OUTER ITERATIONS 
       AND A TOTAL OF          7 INNER ITERATIONS.
    ------------------------------------------------

 NO OUTPUT CONTROL FOR STRESS PERIOD   29   TIME STEP   30



 STREAM LISTING     PERIOD     29   STEP       30

 LAYER ROW COL. STREAM  RCH.  FLOW INTO     FLOW TO   FLOW OUT OF   OVRLND.     DIRECT     STREAM       STREAM     STREAM     STREAM   STREAMBED  STREAMBED
                SEG.NO.  NO.  STRM. RCH.    AQUIFER    STRM. RCH.    RUNOFF     PRECIP       ET          HEAD       DEPTH      WIDTH   CONDCTNC.   GRADIENT

   1    1    1     1     1    1.9000E+01  2.1427E-01   1.8786E+01  0.000E+00  0.000E+00  0.000E+00  1.09413E+03  1.082E+00  1.166E+01  5.249E-02  1.361E+00
   1    2    2     1     2    1.8786E+01  3.3054E-01   1.8455E+01  0.000E+00  0.000E+00  0.000E+00  1.08914E+03  1.077E+00  1.158E+01  8.107E-02  1.359E+00
   1    3    3     1     3    1.8455E+01  2.8064E-01   1.8175E+01  0.000E+00  0.000E+00  0.000E+00  1.08349E+03  1.072E+00  1.149E+01  6.892E-02  1.357E+00
   1    3    4     1     4    1.8175E+01  2.5740E-01   1.7917E+01  0.000E+00  0.000E+00  0.000E+00  1.07848E+03  1.068E+00  1.140E+01  6.328E-02  1.356E+00
   1    4    5     2     1    1.5917E+01  3.0542E-01   1.5612E+01  0.000E+00  0.000E+00  0.000E+00  1.07285E+03  9.157E-01  1.200E+01  7.800E-02  1.305E+00
   1    5    6     2     2    1.5612E+01  2.3438E-01   1.5377E+01  0.000E+00  0.000E+00  0.000E+00  1.06742E+03  9.063E-01  1.200E+01  6.000E-02  1.302E+00
   1    6    6     2     3    1.5377E+01  2.3388E-01   1.5143E+01  0.000E+00  0.000E+00  0.000E+00  1.06269E+03  8.980E-01  1.200E+01  6.000E-02  1.299E+00
   1    7    6     2     4    1.5143E+01  2.3338E-01   1.4910E+01  0.000E+00  0.000E+00  0.000E+00  1.05797E+03  8.897E-01  1.200E+01  6.000E-02  1.297E+00
   1    8    6     2     5    1.4910E+01  2.3289E-01   1.4677E+01  0.000E+00  0.000E+00  0.000E+00  1.05324E+03  8.814E-01  1.200E+01  6.000E-02  1.294E+00
   1    3    5     3     1    2.0000E+00  2.8252E-01   1.7175E+00  0.000E+00  0.000E+00  0.000E+00  1.07555E+03  1.909E+00  9.636E+00  7.227E-02  1.955E+00
   1    3    6     3     2    1.7175E+00  2.4905E-01   1.4684E+00  0.000E+00  0.000E+00  0.000E+00  1.07264E+03  1.727E+00  8.909E+00  6.682E-02  1.864E+00
   1    3    7     3     3    1.4684E+00  1.9718E-01   1.2712E+00  0.000E+00  0.000E+00  0.000E+00  1.06987E+03  1.555E+00  8.218E+00  5.547E-02  1.777E+00
   1    4    8     3     4    1.2712E+00  2.2567E-01   1.0456E+00  0.000E+00  0.000E+00  0.000E+00  1.06682E+03  1.364E+00  7.455E+00  6.709E-02  1.682E+00
   1    5    8     3     5    1.0456E+00  1.5790E-01   8.8768E-01  0.000E+00  0.000E+00  0.000E+00  1.06362E+03  1.164E+00  6.655E+00  4.991E-02  1.582E+00
   1    6    8     3     6    8.8768E-01  5.5980E-02   8.3170E-01  0.000E+00  0.000E+00  0.000E+00  1.06158E+03  1.036E+00  6.145E+00  1.844E-02  1.518E+00
   1    5   10     4     1    1.0000E+01  9.0919E-02   9.9091E+00  0.000E+00  0.000E+00  0.000E+00  1.07836E+03  6.368E-01  1.000E+01  2.500E-02  1.212E+00
   1    5    9     4     2    9.9091E+00  1.8158E-01   9.7275E+00  0.000E+00  0.000E+00  0.000E+00  1.07154E+03  6.315E-01  1.000E+01  5.000E-02  1.211E+00
   1    6    8     4     3    9.7275E+00  1.2689E-01   9.6006E+00  0.000E+00  0.000E+00  0.000E+00  1.06381E+03  6.256E-01  1.000E+01  3.500E-02  1.209E+00
   1    6    8     5     1    1.0432E+01  2.2686E-01   1.0205E+01  0.000E+00  0.000E+00  0.000E+00  1.05868E+03  6.790E-01  1.542E+01  6.166E-02  1.226E+00
   1    7    7     5     2    1.0205E+01  2.7894E-01   9.9265E+00  0.000E+00  0.000E+00  0.000E+00  1.05417E+03  6.732E-01  1.519E+01  7.594E-02  1.224E+00
   1    8    7     5     3    9.9265E+00  1.9221E-01   9.7343E+00  0.000E+00  0.000E+00  0.000E+00  1.04992E+03  6.676E-01  1.497E+01  5.241E-02  1.223E+00
   1    8    6     5     4    9.7343E+00  1.3577E-01   9.5985E+00  0.000E+00  0.000E+00  0.000E+00  1.04691E+03  6.637E-01  1.482E+01  3.706E-02  1.221E+00
   1    9    6     6     1    2.4276E+01  2.5176E-01   2.4024E+01  0.000E+00  0.000E+00  0.000E+00  1.04392E+03  1.196E+00  1.200E+01  6.000E-02  1.399E+00
   1   10    7     6     2    2.4024E+01  2.5131E-01   2.3773E+01  0.000E+00  0.000E+00  0.000E+00  1.03937E+03  1.188E+00  1.200E+01  6.000E-02  1.396E+00
   1   11    7     6     3    2.3773E+01  2.5086E-01   2.3522E+01  0.000E+00  0.000E+00  0.000E+00  1.03482E+03  1.181E+00  1.200E+01  6.000E-02  1.394E+00
   1   12    7     6     4    2.3522E+01  2.5041E-01   2.3271E+01  0.000E+00  0.000E+00  0.000E+00  1.03026E+03  1.173E+00  1.200E+01  6.000E-02  1.391E+00
   1   13    7     6     5    2.3271E+01  5.4319E-03   2.3266E+01  0.000E+00  0.000E+00  0.000E+00  1.02708E+03  1.170E+00  1.200E+01  2.400E-02  7.544E-02
   1   14    9     7     1    1.5000E+02  1.3437E+00   1.4866E+02  0.000E+00  0.000E+00  0.000E+00  1.03987E+03  2.288E+00  5.529E+01  5.593E-01  8.008E-01
   1   13    8     7     2    1.4866E+02  1.8886E+00   1.4677E+02  0.000E+00  0.000E+00  0.000E+00  1.03478E+03  2.279E+00  5.526E+01  6.148E-01  1.024E+00
   1   13    7     7     3    1.4677E+02  1.5841E+00   1.4518E+02  0.000E+00  0.000E+00  0.000E+00  1.02969E+03  2.270E+00  5.521E+01  5.584E-01  9.456E-01
   1   13    6     8     1    1.6845E+02  1.0311E+00   1.6742E+02  0.000E+00  0.000E+00  0.000E+00  1.02481E+03  2.939E+00  4.261E+01  4.342E-01  7.916E-01
   1   13    5     8     2    1.6742E+02  2.8266E-01   1.6714E+02  0.000E+00  0.000E+00  0.000E+00  1.01856E+03  2.934E+00  4.255E+01  4.336E-01  2.173E-01
   1   13    4     8     3    1.6714E+02 -2.0693E+00   1.6921E+02  0.000E+00  0.000E+00  0.000E+00  1.01232E+03  2.940E+00  4.263E+01  4.345E+00 -1.588E-01
   1   13    3     8     4    1.6921E+02 -3.4745E+00   1.7268E+02  0.000E+00  0.000E+00  0.000E+00  1.00608E+03  2.958E+00  4.290E+01  4.371E+00 -2.650E-01
   1   13    2     8     5    1.7268E+02 -2.5395E+00   1.7522E+02  0.000E+00  0.000E+00  0.000E+00  9.99853E+02  2.978E+00  4.318E+01  4.400E+00 -1.924E-01
   1   13    1     8     6    1.7522E+02 -1.9747E+00   1.7719E+02  0.000E+00  0.000E+00  0.000E+00  9.94867E+02  2.992E+00  4.339E+01  2.653E+00 -2.481E-01





UNSATURATED ZONE PACKAGE VOLUMETRIC BUDGET FOR  TIME STEP    30 STRESS PERIOD   29
  ------------------------------------------------------------------------------



     CUMULATIVE VOLUMES      L**3       RATES FOR THIS TIME STEP      L**3/T
     ------------------                 ------------------------

           IN:                                      IN:
           ---                                      ---
        INFILTRATION =   880069140.4922          INFILTRATION =           4.5669

          OUT:                                     OUT:
          ----                                     ----
              UZF ET =   879238589.1295                UZF ET =           4.5675
        UZF RECHARGE =       73224.0000          UZF RECHARGE =       0.0000E+00

            IN - OUT =      757327.3627              IN - OUT =      -5.8115E-04

          STORAGE:                                 STORAGE:
          --------                                 --------
      STORAGE CHANGE =      757321.2754        STORAGE CHANGE =      -5.8115E-04

 PERCENT DISCREPANCY IS DIFFERENCE BETWEEN IN-OUT MINUS CHANGE IN STORAGE
 DIVIDED BY THE AVERAGE OF IN AND OUT TIMES 100

 PERCENT DISCREPANCY =           0.00     PERCENT DISCREPANCY =           0.00






1
  VOLUMETRIC BUDGET FOR AGRICULTURAL FIELDS AT  END OF TIME STEP   30, STRESS PERIOD  29
  ------------------------------------------------------------------------------

     CUMULATIVE VOLUMES      L**3       RATES FOR THIS TIME STEP      L**3/T
     ------------------                 ------------------------

           IN:                                      IN:
           ---                                      ---
               AG WELLS  =   817583808.0000                 AG WELLS  =           3.7194
      DIVERSION SEGMENTS =           0.0000        DIVERSION SEGMENTS =           0.0000
       IRRIGATION PONDS  =           0.0000         IRRIGATION PONDS  =           0.0000
           GW IRRIGATION =           0.0000             GW IRRIGATION =           0.0000
           SW IRRIGATION =           0.0000             SW IRRIGATION =           0.0000
        SYSTEM LOSSES GW =           0.0000          SYSTEM LOSSES GW =           0.0000
        SYSTEM LOSSES SW =           0.0000          SYSTEM LOSSES SW =           0.0000

                TOTAL IN =   817583808.0000                  TOTAL IN =           3.7194

          OUT:                                     OUT:
          ----                                     ----
               AG WELLS  =           0.0000                 AG WELLS  =           0.0000
      DIVERSION SEGMENTS =           0.0000        DIVERSION SEGMENTS =           0.0000
       IRRIGATION PONDS  =           0.0000         IRRIGATION PONDS  =           0.0000
           GW IRRIGATION =   817583808.0000             GW IRRIGATION =           3.7194
           SW IRRIGATION =           0.0000             SW IRRIGATION =           0.0000
        SYSTEM LOSSES GW =           0.0000          SYSTEM LOSSES GW =           0.0000
        SYSTEM LOSSES SW =           0.0000          SYSTEM LOSSES SW =           0.0000

               TOTAL OUT =   817583808.0000                 TOTAL OUT =           3.7194

                IN - OUT =           0.0000                  IN - OUT =           0.0000

     PERCENT DISCREPANCY =           0.00         PERCENT DISCREPANCY =           0.00



1
  VOLUMETRIC BUDGET FOR ENTIRE MODEL AT END OF TIME STEP   30, STRESS PERIOD  29
  ------------------------------------------------------------------------------

     CUMULATIVE VOLUMES      L**3       RATES FOR THIS TIME STEP      L**3/T
     ------------------                 ------------------------

           IN:                                      IN:
           ---                                      ---
             STORAGE     =  1153353856.0000               STORAGE     =           3.9082
       CONSTANT HEAD     =           0.0000         CONSTANT HEAD     =           0.0000
     HEAD DEP BOUNDS     =    21053318.0000       HEAD DEP BOUNDS     =           0.2863
      STREAM LEAKAGE     =   908609088.0000        STREAM LEAKAGE     =          11.8643
        UZF RECHARGE     =       73223.9531          UZF RECHARGE     =           0.0000
               GW ET     =           0.0000                 GW ET     =           0.0000
     SURFACE LEAKAGE     =           0.0000       SURFACE LEAKAGE     =           0.0000
           AG WELLS      =           0.0000             AG WELLS      =           0.0000

                TOTAL IN =  2083089408.0000                  TOTAL IN =          16.0588

          OUT:                                     OUT:
          ----                                     ----
             STORAGE     =   463731680.0000               STORAGE     =           1.9919
       CONSTANT HEAD     =           0.0000         CONSTANT HEAD     =           0.0000
     HEAD DEP BOUNDS     =    21629938.0000       HEAD DEP BOUNDS     =           0.2892
      STREAM LEAKAGE     =   762547008.0000        STREAM LEAKAGE     =          10.0581
        UZF RECHARGE     =           0.0000          UZF RECHARGE     =           0.0000
               GW ET     =    17603406.0000                 GW ET     =           0.0000
     SURFACE LEAKAGE     =           0.0000       SURFACE LEAKAGE     =           0.0000
           AG WELLS      =   817583808.0000             AG WELLS      =           3.7194

               TOTAL OUT =  2083095808.0000                 TOTAL OUT =          16.0587

                IN - OUT =       -6400.0000                  IN - OUT =       1.4687E-04

     PERCENT DISCREPANCY =          -0.00         PERCENT DISCREPANCY =           0.00






         TIME SUMMARY AT END OF TIME STEP   30 IN STRESS PERIOD   29
                    SECONDS     MINUTES      HOURS       DAYS        YEARS
                    -----------------------------------------------------------
   TIME STEP LENGTH  87667.      1461.1      24.352      1.0147     2.77799E-03
 STRESS PERIOD TIME 2.63000E+06  43833.      730.56      30.440     8.33397E-02
         TOTAL TIME 7.37266E+07 1.22878E+06  20480.      853.32      2.3363    
1
1
                            STRESS PERIOD NO.   30, LENGTH =   2630000.    
                            -----------------------------------------------

                              NUMBER OF TIME STEPS =    30

                               MULTIPLIER FOR DELT =     1.000

                            INITIAL TIME STEP SIZE =   87666.66    

 REUSING NON-PARAMETER GHB CELLS FROM LAST STRESS PERIOD

      2 GHB CELLS

 REUSING STREAM SEGMENT DATA FROM LAST STRESS PERIOD



            AREAL INFILTRATION RATE
 READING ON UNIT   19 WITH FORMAT: (FREE)              

            1           2           3           4           5           6           7           8           9          10
 ........................................................................................................................
   1   1.0000E-10  2.0000E-10   0.000       0.000       0.000       0.000       0.000       0.000       0.000       0.000    
   2   2.0000E-10  1.0000E-10  2.0000E-10   0.000       0.000      8.0000E-10  8.0000E-10  5.0000E-10   0.000       0.000    
   3    0.000      5.0000E-10  1.0000E-10  1.0000E-10  8.0000E-10  8.0000E-10  5.0000E-10  5.0000E-10   0.000       0.000    
   4   8.0000E-10  5.0000E-10  1.0000E-10  1.0000E-10  1.0000E-10  1.0000E-10  1.0000E-10  1.0000E-10  2.0000E-10   0.000    
   5   8.0000E-10  5.0000E-10  1.0000E-10  1.0000E-10  1.0000E-10  1.0000E-10  1.0000E-10  1.0000E-10  1.0000E-10  1.0000E-10
   6   8.0000E-10  5.0000E-10  5.0000E-10  2.0000E-10  2.0000E-10  1.0000E-10  1.0000E-10  1.0000E-10  1.0000E-10  5.0000E-10
   7   8.0000E-10  5.0000E-10  5.0000E-10  2.0000E-10  2.0000E-10  1.0000E-10  1.0000E-10  2.0000E-10  2.0000E-10   0.000    
   8    0.000      5.0000E-10  5.0000E-10  2.0000E-10  2.0000E-10  1.0000E-10  1.0000E-10  2.0000E-10  5.0000E-10   0.000    
   9    0.000      5.0000E-10  5.0000E-10  2.0000E-10  2.0000E-10  1.0000E-10  1.0000E-10  2.0000E-10  5.0000E-10   0.000    
  10    0.000      5.0000E-10  5.0000E-10  2.0000E-10  2.0000E-10  1.0000E-10  1.0000E-10  2.0000E-10  5.0000E-10  8.0000E-10
  11    0.000      1.0000E-10  1.0000E-10  1.0000E-10  1.0000E-10  1.0000E-10  1.0000E-10  2.0000E-10  5.0000E-10   0.000    
  12   1.0000E-10  1.0000E-10  1.0000E-10  1.0000E-10  1.0000E-10  1.0000E-10  1.0000E-10  1.0000E-10  2.0000E-10   0.000    
  13   1.0000E-10  1.0000E-10  2.0000E-10  2.0000E-10  2.0000E-10  2.0000E-10  2.0000E-10  1.0000E-10  1.0000E-10   0.000    
  14    0.000      2.0000E-10  5.0000E-10  5.0000E-10  5.0000E-10  5.0000E-10  5.0000E-10  2.0000E-10  1.0000E-10   0.000    
  15    0.000       0.000      8.0000E-10  8.0000E-10  8.0000E-10  8.0000E-10   0.000       0.000       0.000       0.000    

                  ET RATE =  5.000000E-08

 USING ET EXTINCTION DEPTH FROM PREVIOUS STRESS PERIOD. CURRENT PERIOD IS:      30

 USING EXTINCTION WATER CONTENT FROM PREVIOUS STRESS PERIOD. CURRENT PERIOD IS:      30

 USING AIR ENTRY PRESSURE FROM PREVIOUS STRESS PERIOD. CURRENT PERIOD IS:      30

 USING ROOT PRESSURE HEAD FROM PREVIOUS STRESS PERIOD. CURRENT PERIOD IS:      30

 USING ROOT ACTIVITY FROM PREVIOUS STRESS PERIOD. CURRENT PERIOD IS:      30

 PROCESSING AG STRESS PERIOD DATA

 READING AG STRESS PERIOD DATA

 READING IRRIGATION WELL

 NO IRRPOND OR REUSING IRRPOND DATA FROM LAST STRESS PERIOD

 END PROCESSING AG STRESS PERIOD DATA OPTIONS
 
 SOLVING FOR HEAD 
                                                   Max.-Head-Change                         Max.-Flux-Residual
  Residual-Control   Outer-Iter.   Inner-Iter.     Column Row Layer    Maximum-Head-Change  Column Row Layer    Maximum-Flux-Residual          L2-NORM 
          0                 1           2             4    7     1      -0.1253125317E-01       4    7    1        -0.6561379629E+00      0.1708262799E+01
          0                 2           2             4    7     1       0.1218948910E-02       4    7    1         0.6561378278E-01      0.1708251885E+00
          0                 3           1             4    7     1      -0.8300590383E-04       4    7    1        -0.4592966908E-02      0.1195770390E-01

    ------------------------------------------------
       NWT REQUIRED            3 OUTER ITERATIONS 
       AND A TOTAL OF          5 INNER ITERATIONS.
    ------------------------------------------------

 NO OUTPUT CONTROL FOR STRESS PERIOD   30   TIME STEP    1
 
 SOLVING FOR HEAD 
                                                   Max.-Head-Change                         Max.-Flux-Residual
  Residual-Control   Outer-Iter.   Inner-Iter.     Column Row Layer    Maximum-Head-Change  Column Row Layer    Maximum-Flux-Residual          L2-NORM 
          0                 1           2             5    8     1       0.1210496133E-01       5    8    1         0.6455507578E+00      0.1660910860E+01
          0                 2           2             4    7     1      -0.2431332407E-01       5    8    1        -0.1309426545E+01      0.3202575719E+01
          0                 3           2             4    7     1       0.1655643529E-02       5    8    1         0.9165862995E-01      0.2241788718E+00
          0                 4           1             4    7     1      -0.6587962322E-04       5    8    1        -0.3748849074E-02      0.9168935444E-02

    ------------------------------------------------
       NWT REQUIRED            4 OUTER ITERATIONS 
       AND A TOTAL OF          7 INNER ITERATIONS.
    ------------------------------------------------

 NO OUTPUT CONTROL FOR STRESS PERIOD   30   TIME STEP    2
 
 SOLVING FOR HEAD 
                                                   Max.-Head-Change                         Max.-Flux-Residual
  Residual-Control   Outer-Iter.   Inner-Iter.     Column Row Layer    Maximum-Head-Change  Column Row Layer    Maximum-Flux-Residual          L2-NORM 
          0                 1           2             5    8     1       0.1245800662E-01       5    8    1         0.6649655723E+00      0.1685820355E+01
          0                 2           2             4    7     1      -0.2432367441E-01       5    8    1        -0.1311369127E+01      0.3205868324E+01
          0                 3           2             4    7     1       0.1656348376E-02       5    8    1         0.9179460584E-01      0.2244093515E+00
          0                 4           1             4    7     1      -0.6590766957E-04       5    8    1        -0.3754410495E-02      0.9178361778E-02

    ------------------------------------------------
       NWT REQUIRED            4 OUTER ITERATIONS 
       AND A TOTAL OF          7 INNER ITERATIONS.
    ------------------------------------------------

 NO OUTPUT CONTROL FOR STRESS PERIOD   30   TIME STEP    3
 
 SOLVING FOR HEAD 
                                                   Max.-Head-Change                         Max.-Flux-Residual
  Residual-Control   Outer-Iter.   Inner-Iter.     Column Row Layer    Maximum-Head-Change  Column Row Layer    Maximum-Flux-Residual          L2-NORM 
          0                 1           2             5    8     1       0.1279183077E-01       5    8    1         0.6833092942E+00      0.1710610691E+01
          0                 2           2             4    7     1      -0.2433443767E-01       5    8    1        -0.1313204718E+01      0.3209047935E+01
          0                 3           2             4    7     1       0.1657081340E-02       5    8    1         0.9192309264E-01      0.2246319200E+00
          0                 4           1             4    7     1      -0.6593683461E-04       5    8    1        -0.3759665640E-02      0.9187471800E-02

    ------------------------------------------------
       NWT REQUIRED            4 OUTER ITERATIONS 
       AND A TOTAL OF          7 INNER ITERATIONS.
    ------------------------------------------------

 NO OUTPUT CONTROL FOR STRESS PERIOD   30   TIME STEP    4
 
 SOLVING FOR HEAD 
                                                   Max.-Head-Change                         Max.-Flux-Residual
  Residual-Control   Outer-Iter.   Inner-Iter.     Column Row Layer    Maximum-Head-Change  Column Row Layer    Maximum-Flux-Residual          L2-NORM 
          0                 1           2             5    8     1       0.1310776260E-01       5    8    1         0.7006564484E+00      0.1735181485E+01
          0                 2           2             4    7     1      -0.2434556328E-01       5    8    1        -0.1314940532E+01      0.3212118570E+01
          0                 3           2             4    7     1       0.1657838976E-02       5    8    1         0.9204459538E-01      0.2248468635E+00
          0                 4           1             4    7     1      -0.6596698146E-04       5    8    1        -0.3764635134E-02      0.9196256435E-02

    ------------------------------------------------
       NWT REQUIRED            4 OUTER ITERATIONS 
       AND A TOTAL OF          7 INNER ITERATIONS.
    ------------------------------------------------

 NO OUTPUT CONTROL FOR STRESS PERIOD   30   TIME STEP    5
 
 SOLVING FOR HEAD 
                                                   Max.-Head-Change                         Max.-Flux-Residual
  Residual-Control   Outer-Iter.   Inner-Iter.     Column Row Layer    Maximum-Head-Change  Column Row Layer    Maximum-Flux-Residual          L2-NORM 
          0                 1           2             5    8     1       0.1340688565E-01       5    8    1         0.7170680654E+00      0.1759453504E+01
          0                 2           2             4    7     1      -0.2435699735E-01       5    8    1        -0.1316582790E+01      0.3215085123E+01
          0                 3           2             4    7     1       0.1658617614E-02       5    8    1         0.9215954953E-01      0.2250545185E+00
          0                 4           1             4    7     1      -0.6599796426E-04       5    8    1        -0.3769336782E-02      0.9204749472E-02

    ------------------------------------------------
       NWT REQUIRED            4 OUTER ITERATIONS 
       AND A TOTAL OF          7 INNER ITERATIONS.
    ------------------------------------------------

 NO OUTPUT CONTROL FOR STRESS PERIOD   30   TIME STEP    6
 
 SOLVING FOR HEAD 
                                                   Max.-Head-Change                         Max.-Flux-Residual
  Residual-Control   Outer-Iter.   Inner-Iter.     Column Row Layer    Maximum-Head-Change  Column Row Layer    Maximum-Flux-Residual          L2-NORM 
          0                 1           2             5    8     1       0.1369062099E-01       5    8    1         0.7326239058E+00      0.1783375983E+01
          0                 2           2             4    7     1      -0.2436871325E-01       5    8    1        -0.1318139470E+01      0.3217952959E+01
          0                 3           2             4    7     1       0.1659415444E-02       5    8    1         0.9226851343E-01      0.2252552653E+00
          0                 4           1             4    7     1      -0.6602971058E-04       5    8    1        -0.3773793455E-02      0.9213005688E-02

    ------------------------------------------------
       NWT REQUIRED            4 OUTER ITERATIONS 
       AND A TOTAL OF          7 INNER ITERATIONS.
    ------------------------------------------------

 NO OUTPUT CONTROL FOR STRESS PERIOD   30   TIME STEP    7
 
 SOLVING FOR HEAD 
                                                   Max.-Head-Change                         Max.-Flux-Residual
  Residual-Control   Outer-Iter.   Inner-Iter.     Column Row Layer    Maximum-Head-Change  Column Row Layer    Maximum-Flux-Residual          L2-NORM 
          0                 1           2             5    8     1       0.1395957830E-01       5    8    1         0.7473583509E+00      0.1806894112E+01
          0                 2           2             4    7     1      -0.2438067341E-01       5    8    1        -0.1319614010E+01      0.3220725289E+01
          0                 3           2             4    7     1       0.1660229903E-02       5    8    1         0.9237172774E-01      0.2254493262E+00
          0                 4           1             4    7     1      -0.6606211865E-04       5    8    1        -0.3778014920E-02      0.9220896044E-02

    ------------------------------------------------
       NWT REQUIRED            4 OUTER ITERATIONS 
       AND A TOTAL OF          7 INNER ITERATIONS.
    ------------------------------------------------

 NO OUTPUT CONTROL FOR STRESS PERIOD   30   TIME STEP    8
 
 SOLVING FOR HEAD 
                                                   Max.-Head-Change                         Max.-Flux-Residual
  Residual-Control   Outer-Iter.   Inner-Iter.     Column Row Layer    Maximum-Head-Change  Column Row Layer    Maximum-Flux-Residual          L2-NORM 
          0                 1           2             5    8     1       0.1421489015E-01       5    8    1         0.7613344506E+00      0.1829976732E+01
          0                 2           2             4    7     1      -0.2439282975E-01       5    8    1        -0.1321012714E+01      0.3223406755E+01
          0                 3           2             4    7     1       0.1660995116E-02       5    8    1         0.9246963379E-01      0.2255116781E+00
          0                 4           1             4    7     1      -0.6609256679E-04       5    8    1        -0.3782019318E-02      0.9223446854E-02

    ------------------------------------------------
       NWT REQUIRED            4 OUTER ITERATIONS 
       AND A TOTAL OF          7 INNER ITERATIONS.
    ------------------------------------------------

 NO OUTPUT CONTROL FOR STRESS PERIOD   30   TIME STEP    9
 
 SOLVING FOR HEAD 
                                                   Max.-Head-Change                         Max.-Flux-Residual
  Residual-Control   Outer-Iter.   Inner-Iter.     Column Row Layer    Maximum-Head-Change  Column Row Layer    Maximum-Flux-Residual          L2-NORM 
          0                 1           2             5    8     1       0.1445740235E-01       5    8    1         0.7745994263E+00      0.1852511755E+01
          0                 2           2             4    7     1      -0.2440518438E-01       5    8    1        -0.1322340304E+01      0.3226024341E+01
          0                 3           2             4    7     1       0.1661739970E-02       5    8    1         0.9256256213E-01      0.2255349568E+00
          0                 4           1             4    7     1      -0.6612220570E-04       5    8    1        -0.3785820132E-02      0.9224398695E-02

    ------------------------------------------------
       NWT REQUIRED            4 OUTER ITERATIONS 
       AND A TOTAL OF          7 INNER ITERATIONS.
    ------------------------------------------------

 NO OUTPUT CONTROL FOR STRESS PERIOD   30   TIME STEP   10
 
 SOLVING FOR HEAD 
                                                   Max.-Head-Change                         Max.-Flux-Residual
  Residual-Control   Outer-Iter.   Inner-Iter.     Column Row Layer    Maximum-Head-Change  Column Row Layer    Maximum-Flux-Residual          L2-NORM 
          0                 1           2             5    8     1       0.1468779143E-01       5    8    1         0.7871980867E+00      0.1874522669E+01
          0                 2           2             4    7     1      -0.2441780360E-01       5    8    1        -0.1323601262E+01      0.3228486645E+01
          0                 3           2             4    7     1       0.1662758460E-02       5    8    1         0.9265082687E-01      0.2259927612E+00
          0                 4           1             4    7     1      -0.6616273154E-04       5    8    1        -0.3789430141E-02      0.9243123201E-02

    ------------------------------------------------
       NWT REQUIRED            4 OUTER ITERATIONS 
       AND A TOTAL OF          7 INNER ITERATIONS.
    ------------------------------------------------

 NO OUTPUT CONTROL FOR STRESS PERIOD   30   TIME STEP   11
 
 SOLVING FOR HEAD 
                                                   Max.-Head-Change                         Max.-Flux-Residual
  Residual-Control   Outer-Iter.   Inner-Iter.     Column Row Layer    Maximum-Head-Change  Column Row Layer    Maximum-Flux-Residual          L2-NORM 
          0                 1           2             5    8     1       0.1490696168E-01       5    8    1         0.7991745136E+00      0.1896046577E+01
          0                 2           2             4    7     1      -0.2443038063E-01       5    8    1        -0.1324799877E+01      0.3230902904E+01
          0                 3           2             4    7     1       0.1663614921E-02       5    8    1         0.9273472720E-01      0.2261619021E+00
          0                 4           1             4    7     1      -0.6619681115E-04       5    8    1        -0.3792861688E-02      0.9250041032E-02

    ------------------------------------------------
       NWT REQUIRED            4 OUTER ITERATIONS 
       AND A TOTAL OF          7 INNER ITERATIONS.
    ------------------------------------------------

 NO OUTPUT CONTROL FOR STRESS PERIOD   30   TIME STEP   12
 
 SOLVING FOR HEAD 
                                                   Max.-Head-Change                         Max.-Flux-Residual
  Residual-Control   Outer-Iter.   Inner-Iter.     Column Row Layer    Maximum-Head-Change  Column Row Layer    Maximum-Flux-Residual          L2-NORM 
          0                 1           2             5    8     1       0.1511535976E-01       5    8    1         0.8105535551E+00      0.1917078039E+01
          0                 2           2             4    7     1      -0.2444303279E-01       5    8    1        -0.1325938871E+01      0.3233243443E+01
          0                 3           2             4    7     1       0.1664476495E-02       5    8    1         0.9281445430E-01      0.2263257383E+00
          0                 4           1             4    7     1      -0.6623109339E-04       5    8    1        -0.3796122514E-02      0.9256741426E-02

    ------------------------------------------------
       NWT REQUIRED            4 OUTER ITERATIONS 
       AND A TOTAL OF          7 INNER ITERATIONS.
    ------------------------------------------------

 NO OUTPUT CONTROL FOR STRESS PERIOD   30   TIME STEP   13
 
 SOLVING FOR HEAD 
                                                   Max.-Head-Change                         Max.-Flux-Residual
  Residual-Control   Outer-Iter.   Inner-Iter.     Column Row Layer    Maximum-Head-Change  Column Row Layer    Maximum-Flux-Residual          L2-NORM 
          0                 1           2             5    8     1       0.1531395817E-01       5    8    1         0.8213898061E+00      0.1937614214E+01
          0                 2           2             4    7     1      -0.2445574534E-01       5    8    1        -0.1327023466E+01      0.3235510980E+01
          0                 3           2             4    7     1       0.1665342181E-02       5    8    1         0.9289037362E-01      0.2264844649E+00
          0                 4           1             4    7     1      -0.6626554014E-04       5    8    1        -0.3799227653E-02      0.9263234713E-02

    ------------------------------------------------
       NWT REQUIRED            4 OUTER ITERATIONS 
       AND A TOTAL OF          7 INNER ITERATIONS.
    ------------------------------------------------

 NO OUTPUT CONTROL FOR STRESS PERIOD   30   TIME STEP   14
 
 SOLVING FOR HEAD 
                                                   Max.-Head-Change                         Max.-Flux-Residual
  Residual-Control   Outer-Iter.   Inner-Iter.     Column Row Layer    Maximum-Head-Change  Column Row Layer    Maximum-Flux-Residual          L2-NORM 
          0                 1           2             5    8     1       0.1550309730E-01       5    8    1         0.8317022468E+00      0.1957656032E+01
          0                 2           2             4    7     1      -0.2446850134E-01       5    8    1        -0.1328055799E+01      0.3237708823E+01
          0                 3           2             4    7     1       0.1666210824E-02       5    8    1         0.9296263470E-01      0.2266273032E+00
          0                 4           1             4    7     1      -0.6630010421E-04       5    8    1        -0.3802183150E-02      0.9268845605E-02

    ------------------------------------------------
       NWT REQUIRED            4 OUTER ITERATIONS 
       AND A TOTAL OF          7 INNER ITERATIONS.
    ------------------------------------------------

 NO OUTPUT CONTROL FOR STRESS PERIOD   30   TIME STEP   15
 
 SOLVING FOR HEAD 
                                                   Max.-Head-Change                         Max.-Flux-Residual
  Residual-Control   Outer-Iter.   Inner-Iter.     Column Row Layer    Maximum-Head-Change  Column Row Layer    Maximum-Flux-Residual          L2-NORM 
          0                 1           2             5    8     1       0.1568365662E-01       5    8    1         0.8415399660E+00      0.1977212931E+01
          0                 2           2             4    7     1      -0.2448127626E-01       5    8    1        -0.1329040539E+01      0.3239840062E+01
          0                 3           2             4    7     1       0.1667080755E-02       5    8    1         0.9303156446E-01      0.2267763973E+00
          0                 4           1             4    7     1      -0.6633471940E-04       5    8    1        -0.3805002393E-02      0.9274887340E-02

    ------------------------------------------------
       NWT REQUIRED            4 OUTER ITERATIONS 
       AND A TOTAL OF          7 INNER ITERATIONS.
    ------------------------------------------------

 NO OUTPUT CONTROL FOR STRESS PERIOD   30   TIME STEP   16
 
 SOLVING FOR HEAD 
                                                   Max.-Head-Change                         Max.-Flux-Residual
  Residual-Control   Outer-Iter.   Inner-Iter.     Column Row Layer    Maximum-Head-Change  Column Row Layer    Maximum-Flux-Residual          L2-NORM 
          0                 1           2             5    8     1       0.1585588212E-01       5    8    1         0.8509171225E+00      0.1996276763E+01
          0                 2           2             4    7     1      -0.2449405366E-01       5    8    1        -0.1329979223E+01      0.3241906207E+01
          0                 3           2             4    7     1       0.1667950854E-02       5    8    1         0.9309727036E-01      0.2269209632E+00
          0                 4           1             4    7     1      -0.6636934160E-04       5    8    1        -0.3807689748E-02      0.9280752863E-02

    ------------------------------------------------
       NWT REQUIRED            4 OUTER ITERATIONS 
       AND A TOTAL OF          7 INNER ITERATIONS.
    ------------------------------------------------

 NO OUTPUT CONTROL FOR STRESS PERIOD   30   TIME STEP   17
 
 SOLVING FOR HEAD 
                                                   Max.-Head-Change                         Max.-Flux-Residual
  Residual-Control   Outer-Iter.   Inner-Iter.     Column Row Layer    Maximum-Head-Change  Column Row Layer    Maximum-Flux-Residual          L2-NORM 
          0                 1           2             5    8     1       0.1602029278E-01       5    8    1         0.8598621900E+00      0.2014857061E+01
          0                 2           2             4    7     1      -0.2450681873E-01       5    8    1        -0.1330874816E+01      0.3243910590E+01
          0                 3           2             4    7     1       0.1668820112E-02       5    8    1         0.9315996005E-01      0.2270612301E+00
          0                 4           1             4    7     1      -0.6640392974E-04       5    8    1        -0.3810253771E-02      0.9286443562E-02

    ------------------------------------------------
       NWT REQUIRED            4 OUTER ITERATIONS 
       AND A TOTAL OF          7 INNER ITERATIONS.
    ------------------------------------------------

 NO OUTPUT CONTROL FOR STRESS PERIOD   30   TIME STEP   18
 
 SOLVING FOR HEAD 
                                                   Max.-Head-Change                         Max.-Flux-Residual
  Residual-Control   Outer-Iter.   Inner-Iter.     Column Row Layer    Maximum-Head-Change  Column Row Layer    Maximum-Flux-Residual          L2-NORM 
          0                 1           2             5    8     1       0.1617751221E-01       5    8    1         0.8684099385E+00      0.2032976180E+01
          0                 2           2             4    7     1      -0.2451955179E-01       5    8    1        -0.1331730557E+01      0.3245856159E+01
          0                 3           2             4    7     1       0.1669687189E-02       5    8    1         0.9321986022E-01      0.2271973986E+00
          0                 4           1             4    7     1      -0.6643843187E-04       5    8    1        -0.3812703703E-02      0.9291974696E-02

    ------------------------------------------------
       NWT REQUIRED            4 OUTER ITERATIONS 
       AND A TOTAL OF          7 INNER ITERATIONS.
    ------------------------------------------------

 NO OUTPUT CONTROL FOR STRESS PERIOD   30   TIME STEP   19
 
 SOLVING FOR HEAD 
                                                   Max.-Head-Change                         Max.-Flux-Residual
  Residual-Control   Outer-Iter.   Inner-Iter.     Column Row Layer    Maximum-Head-Change  Column Row Layer    Maximum-Flux-Residual          L2-NORM 
          0                 1           2             5    8     1       0.1632797123E-01       5    8    1         0.8765848349E+00      0.2050635303E+01
          0                 2           2             4    7     1      -0.2453222751E-01       5    8    1        -0.1332549012E+01      0.3247744691E+01
          0                 3           2             4    7     1       0.1670550362E-02       5    8    1         0.9326096177E-01      0.2273237492E+00
          0                 4           1             4    7     1      -0.6647277846E-04       5    8    1        -0.3812814041E-02      0.9296981288E-02

    ------------------------------------------------
       NWT REQUIRED            4 OUTER ITERATIONS 
       AND A TOTAL OF          7 INNER ITERATIONS.
    ------------------------------------------------

 NO OUTPUT CONTROL FOR STRESS PERIOD   30   TIME STEP   20
 
 SOLVING FOR HEAD 
                                                   Max.-Head-Change                         Max.-Flux-Residual
  Residual-Control   Outer-Iter.   Inner-Iter.     Column Row Layer    Maximum-Head-Change  Column Row Layer    Maximum-Flux-Residual          L2-NORM 
          0                 1           2             5    8     1       0.1647179087E-01       5    8    1         0.8843933687E+00      0.2067840237E+01
          0                 2           2             4    7     1      -0.2454485965E-01       5    8    1        -0.1333330831E+01      0.3249578218E+01
          0                 3           2             4    7     1       0.1671410565E-02       5    8    1         0.9331598998E-01      0.2274520794E+00
          0                 4           1             4    7     1      -0.6650700647E-04       5    8    1        -0.3815094029E-02      0.9302180523E-02

    ------------------------------------------------
       NWT REQUIRED            4 OUTER ITERATIONS 
       AND A TOTAL OF          7 INNER ITERATIONS.
    ------------------------------------------------

 NO OUTPUT CONTROL FOR STRESS PERIOD   30   TIME STEP   21
 
 SOLVING FOR HEAD 
                                                   Max.-Head-Change                         Max.-Flux-Residual
  Residual-Control   Outer-Iter.   Inner-Iter.     Column Row Layer    Maximum-Head-Change  Column Row Layer    Maximum-Flux-Residual          L2-NORM 
          0                 1           2             5    8     1       0.1660965014E-01       5    8    1         0.8918735201E+00      0.2084610612E+01
          0                 2           2             4    7     1      -0.2455742273E-01       5    8    1        -0.1334079811E+01      0.3251359552E+01
          0                 3           2             4    7     1       0.1672266066E-02       5    8    1         0.9336870453E-01      0.2275746106E+00
          0                 4           1             4    7     1      -0.6654104786E-04       5    8    1        -0.3817277949E-02      0.9307092246E-02

    ------------------------------------------------
       NWT REQUIRED            4 OUTER ITERATIONS 
       AND A TOTAL OF          7 INNER ITERATIONS.
    ------------------------------------------------

 NO OUTPUT CONTROL FOR STRESS PERIOD   30   TIME STEP   22
 
 SOLVING FOR HEAD 
                                                   Max.-Head-Change                         Max.-Flux-Residual
  Residual-Control   Outer-Iter.   Inner-Iter.     Column Row Layer    Maximum-Head-Change  Column Row Layer    Maximum-Flux-Residual          L2-NORM 
          0                 1           2             5    8     1       0.1674176103E-01       5    8    1         0.8990367820E+00      0.2100949188E+01
          0                 2           2             4    7     1      -0.2456989057E-01       5    8    1        -0.1334796982E+01      0.3253089590E+01
          0                 3           2             4    7     1       0.1673115079E-02       5    8    1         0.9341917708E-01      0.2276957184E+00
          0                 4           1             4    7     1      -0.6657483113E-04       5    8    1        -0.3819368658E-02      0.9311996415E-02

    ------------------------------------------------
       NWT REQUIRED            4 OUTER ITERATIONS 
       AND A TOTAL OF          7 INNER ITERATIONS.
    ------------------------------------------------

 NO OUTPUT CONTROL FOR STRESS PERIOD   30   TIME STEP   23
 
 SOLVING FOR HEAD 
                                                   Max.-Head-Change                         Max.-Flux-Residual
  Residual-Control   Outer-Iter.   Inner-Iter.     Column Row Layer    Maximum-Head-Change  Column Row Layer    Maximum-Flux-Residual          L2-NORM 
          0                 1           2             5    8     1       0.1686845790E-01       5    8    1         0.9059020002E+00      0.2116873285E+01
          0                 2           2             4    7     1      -0.2458228461E-01       5    8    1        -0.1335484467E+01      0.3254771561E+01
          0                 3           2             4    7     1       0.1673959067E-02       5    8    1         0.9346755787E-01      0.2278134803E+00
          0                 4           1             4    7     1      -0.6660841385E-04       5    8    1        -0.3821372477E-02      0.9316770301E-02

    ------------------------------------------------
       NWT REQUIRED            4 OUTER ITERATIONS 
       AND A TOTAL OF          7 INNER ITERATIONS.
    ------------------------------------------------

 NO OUTPUT CONTROL FOR STRESS PERIOD   30   TIME STEP   24
 
 SOLVING FOR HEAD 
                                                   Max.-Head-Change                         Max.-Flux-Residual
  Residual-Control   Outer-Iter.   Inner-Iter.     Column Row Layer    Maximum-Head-Change  Column Row Layer    Maximum-Flux-Residual          L2-NORM 
          0                 1           2             5    8     1       0.1699005284E-01       5    8    1         0.9124865176E+00      0.2132384834E+01
          0                 2           2             4    7     1      -0.2459456656E-01       5    8    1        -0.1336143882E+01      0.3256405919E+01
          0                 3           2             4    7     1       0.1674795422E-02       5    8    1         0.9351396053E-01      0.2279279239E+00
          0                 4           1             4    7     1      -0.6664169310E-04       5    8    1        -0.3823294114E-02      0.9321412435E-02

    ------------------------------------------------
       NWT REQUIRED            4 OUTER ITERATIONS 
       AND A TOTAL OF          7 INNER ITERATIONS.
    ------------------------------------------------

 NO OUTPUT CONTROL FOR STRESS PERIOD   30   TIME STEP   25
 
 SOLVING FOR HEAD 
                                                   Max.-Head-Change                         Max.-Flux-Residual
  Residual-Control   Outer-Iter.   Inner-Iter.     Column Row Layer    Maximum-Head-Change  Column Row Layer    Maximum-Flux-Residual          L2-NORM 
          0                 1           2             5    8     1       0.1710669444E-01       5    8    1         0.9187986544E+00      0.2147508216E+01
          0                 2           2             4    7     1      -0.2460675579E-01       5    8    1        -0.1336776058E+01      0.3257995933E+01
          0                 3           2             4    7     1       0.1675625462E-02       5    8    1         0.9355844470E-01      0.2280392764E+00
          0                 4           1             4    7     1      -0.6667472148E-04       5    8    1        -0.3825136121E-02      0.9325932647E-02

    ------------------------------------------------
       NWT REQUIRED            4 OUTER ITERATIONS 
       AND A TOTAL OF          7 INNER ITERATIONS.
    ------------------------------------------------

 NO OUTPUT CONTROL FOR STRESS PERIOD   30   TIME STEP   26
 
 SOLVING FOR HEAD 
                                                   Max.-Head-Change                         Max.-Flux-Residual
  Residual-Control   Outer-Iter.   Inner-Iter.     Column Row Layer    Maximum-Head-Change  Column Row Layer    Maximum-Flux-Residual          L2-NORM 
          0                 1           2             5    8     1       0.1721880767E-01       5    8    1         0.9248618297E+00      0.2162244568E+01
          0                 2           2             4    7     1      -0.2461881575E-01       5    8    1        -0.1337383218E+01      0.3259541651E+01
          0                 3           2             4    7     1       0.1676446699E-02       5    8    1         0.9360116567E-01      0.2281475375E+00
          0                 4           1             4    7     1      -0.6670739895E-04       5    8    1        -0.3826904818E-02      0.9330330162E-02

    ------------------------------------------------
       NWT REQUIRED            4 OUTER ITERATIONS 
       AND A TOTAL OF          7 INNER ITERATIONS.
    ------------------------------------------------

 NO OUTPUT CONTROL FOR STRESS PERIOD   30   TIME STEP   27
 
 SOLVING FOR HEAD 
                                                   Max.-Head-Change                         Max.-Flux-Residual
  Residual-Control   Outer-Iter.   Inner-Iter.     Column Row Layer    Maximum-Head-Change  Column Row Layer    Maximum-Flux-Residual          L2-NORM 
          0                 1           2             5    8     1       0.1732664372E-01       5    8    1         0.9306902300E+00      0.2176612867E+01
          0                 2           2             4    7     1      -0.2463075850E-01       5    8    1        -0.1337967035E+01      0.3261046185E+01
          0                 3           2             4    7     1       0.1677259955E-02       5    8    1         0.9364224218E-01      0.2282529261E+00
          0                 4           1             4    7     1      -0.6673975936E-04       5    8    1        -0.3828605283E-02      0.9334612431E-02

    ------------------------------------------------
       NWT REQUIRED            4 OUTER ITERATIONS 
       AND A TOTAL OF          7 INNER ITERATIONS.
    ------------------------------------------------

 NO OUTPUT CONTROL FOR STRESS PERIOD   30   TIME STEP   28
 
 SOLVING FOR HEAD 
                                                   Max.-Head-Change                         Max.-Flux-Residual
  Residual-Control   Outer-Iter.   Inner-Iter.     Column Row Layer    Maximum-Head-Change  Column Row Layer    Maximum-Flux-Residual          L2-NORM 
          0                 1           2             5    8     1       0.1743044074E-01       5    8    1         0.9362968294E+00      0.2190612446E+01
          0                 2           2             4    7     1      -0.2464256048E-01       5    8    1        -0.1338528522E+01      0.3262509346E+01
          0                 3           2             4    7     1       0.1678063623E-02       5    8    1         0.9368174490E-01      0.2283554253E+00
          0                 4           1             4    7     1      -0.6677173790E-04       5    8    1        -0.3830240302E-02      0.9338781620E-02

    ------------------------------------------------
       NWT REQUIRED            4 OUTER ITERATIONS 
       AND A TOTAL OF          7 INNER ITERATIONS.
    ------------------------------------------------

 NO OUTPUT CONTROL FOR STRESS PERIOD   30   TIME STEP   29
 
 SOLVING FOR HEAD 
                                                   Max.-Head-Change                         Max.-Flux-Residual
  Residual-Control   Outer-Iter.   Inner-Iter.     Column Row Layer    Maximum-Head-Change  Column Row Layer    Maximum-Flux-Residual          L2-NORM 
          0                 1           2             5    8     1       0.1753027937E-01       5    8    1         0.9416861958E+00      0.2204268455E+01
          0                 2           2             4    7     1      -0.2465424605E-01       5    8    1        -0.1339068301E+01      0.3263934396E+01
          0                 3           2             4    7     1       0.1678859364E-02       5    8    1         0.9371971823E-01      0.2284552626E+00
          0                 4           1             4    7     1      -0.6680340133E-04       5    8    1        -0.3831811824E-02      0.9342843475E-02

    ------------------------------------------------
       NWT REQUIRED            4 OUTER ITERATIONS 
       AND A TOTAL OF          7 INNER ITERATIONS.
    ------------------------------------------------

 NO OUTPUT CONTROL FOR STRESS PERIOD   30   TIME STEP   30



 STREAM LISTING     PERIOD     30   STEP       30

 LAYER ROW COL. STREAM  RCH.  FLOW INTO     FLOW TO   FLOW OUT OF   OVRLND.     DIRECT     STREAM       STREAM     STREAM     STREAM   STREAMBED  STREAMBED
                SEG.NO.  NO.  STRM. RCH.    AQUIFER    STRM. RCH.    RUNOFF     PRECIP       ET          HEAD       DEPTH      WIDTH   CONDCTNC.   GRADIENT

   1    1    1     1     1    1.9000E+01  2.1427E-01   1.8786E+01  0.000E+00  0.000E+00  0.000E+00  1.09413E+03  1.082E+00  1.166E+01  5.249E-02  1.361E+00
   1    2    2     1     2    1.8786E+01  3.3054E-01   1.8455E+01  0.000E+00  0.000E+00  0.000E+00  1.08914E+03  1.077E+00  1.158E+01  8.107E-02  1.359E+00
   1    3    3     1     3    1.8455E+01  2.8064E-01   1.8175E+01  0.000E+00  0.000E+00  0.000E+00  1.08349E+03  1.072E+00  1.149E+01  6.892E-02  1.357E+00
   1    3    4     1     4    1.8175E+01  2.5740E-01   1.7917E+01  0.000E+00  0.000E+00  0.000E+00  1.07848E+03  1.068E+00  1.140E+01  6.328E-02  1.356E+00
   1    4    5     2     1    1.5917E+01  3.0542E-01   1.5612E+01  0.000E+00  0.000E+00  0.000E+00  1.07285E+03  9.157E-01  1.200E+01  7.800E-02  1.305E+00
   1    5    6     2     2    1.5612E+01  2.3438E-01   1.5377E+01  0.000E+00  0.000E+00  0.000E+00  1.06742E+03  9.063E-01  1.200E+01  6.000E-02  1.302E+00
   1    6    6     2     3    1.5377E+01  2.3388E-01   1.5143E+01  0.000E+00  0.000E+00  0.000E+00  1.06269E+03  8.980E-01  1.200E+01  6.000E-02  1.299E+00
   1    7    6     2     4    1.5143E+01  2.3338E-01   1.4910E+01  0.000E+00  0.000E+00  0.000E+00  1.05797E+03  8.897E-01  1.200E+01  6.000E-02  1.297E+00
   1    8    6     2     5    1.4910E+01  2.3289E-01   1.4677E+01  0.000E+00  0.000E+00  0.000E+00  1.05324E+03  8.814E-01  1.200E+01  6.000E-02  1.294E+00
   1    3    5     3     1    2.0000E+00  2.8252E-01   1.7175E+00  0.000E+00  0.000E+00  0.000E+00  1.07555E+03  1.909E+00  9.636E+00  7.227E-02  1.955E+00
   1    3    6     3     2    1.7175E+00  2.4905E-01   1.4684E+00  0.000E+00  0.000E+00  0.000E+00  1.07264E+03  1.727E+00  8.909E+00  6.682E-02  1.864E+00
   1    3    7     3     3    1.4684E+00  1.9718E-01   1.2712E+00  0.000E+00  0.000E+00  0.000E+00  1.06987E+03  1.555E+00  8.218E+00  5.547E-02  1.777E+00
   1    4    8     3     4    1.2712E+00  2.2567E-01   1.0456E+00  0.000E+00  0.000E+00  0.000E+00  1.06682E+03  1.364E+00  7.455E+00  6.709E-02  1.682E+00
   1    5    8     3     5    1.0456E+00  1.5790E-01   8.8768E-01  0.000E+00  0.000E+00  0.000E+00  1.06362E+03  1.164E+00  6.655E+00  4.991E-02  1.582E+00
   1    6    8     3     6    8.8768E-01  5.5980E-02   8.3170E-01  0.000E+00  0.000E+00  0.000E+00  1.06158E+03  1.036E+00  6.145E+00  1.844E-02  1.518E+00
   1    5   10     4     1    1.0000E+01  9.0919E-02   9.9091E+00  0.000E+00  0.000E+00  0.000E+00  1.07836E+03  6.368E-01  1.000E+01  2.500E-02  1.212E+00
   1    5    9     4     2    9.9091E+00  1.8158E-01   9.7275E+00  0.000E+00  0.000E+00  0.000E+00  1.07154E+03  6.315E-01  1.000E+01  5.000E-02  1.211E+00
   1    6    8     4     3    9.7275E+00  1.2689E-01   9.6006E+00  0.000E+00  0.000E+00  0.000E+00  1.06381E+03  6.256E-01  1.000E+01  3.500E-02  1.209E+00
   1    6    8     5     1    1.0432E+01  2.2686E-01   1.0205E+01  0.000E+00  0.000E+00  0.000E+00  1.05868E+03  6.790E-01  1.542E+01  6.166E-02  1.226E+00
   1    7    7     5     2    1.0205E+01  2.7894E-01   9.9265E+00  0.000E+00  0.000E+00  0.000E+00  1.05417E+03  6.732E-01  1.519E+01  7.594E-02  1.224E+00
   1    8    7     5     3    9.9265E+00  1.9221E-01   9.7343E+00  0.000E+00  0.000E+00  0.000E+00  1.04992E+03  6.676E-01  1.497E+01  5.241E-02  1.223E+00
   1    8    6     5     4    9.7343E+00  1.3577E-01   9.5985E+00  0.000E+00  0.000E+00  0.000E+00  1.04691E+03  6.637E-01  1.482E+01  3.706E-02  1.221E+00
   1    9    6     6     1    2.4276E+01  2.5176E-01   2.4024E+01  0.000E+00  0.000E+00  0.000E+00  1.04392E+03  1.196E+00  1.200E+01  6.000E-02  1.399E+00
   1   10    7     6     2    2.4024E+01  2.5131E-01   2.3773E+01  0.000E+00  0.000E+00  0.000E+00  1.03937E+03  1.188E+00  1.200E+01  6.000E-02  1.396E+00
   1   11    7     6     3    2.3773E+01  2.5086E-01   2.3522E+01  0.000E+00  0.000E+00  0.000E+00  1.03482E+03  1.181E+00  1.200E+01  6.000E-02  1.394E+00
   1   12    7     6     4    2.3522E+01  2.5041E-01   2.3271E+01  0.000E+00  0.000E+00  0.000E+00  1.03026E+03  1.173E+00  1.200E+01  6.000E-02  1.391E+00
   1   13    7     6     5    2.3271E+01  5.9163E-03   2.3265E+01  0.000E+00  0.000E+00  0.000E+00  1.02708E+03  1.170E+00  1.200E+01  2.400E-02  8.217E-02
   1   14    9     7     1    1.5000E+02  1.3456E+00   1.4865E+02  0.000E+00  0.000E+00  0.000E+00  1.03987E+03  2.288E+00  5.529E+01  5.593E-01  8.019E-01
   1   13    8     7     2    1.4865E+02  1.8960E+00   1.4676E+02  0.000E+00  0.000E+00  0.000E+00  1.03478E+03  2.279E+00  5.526E+01  6.148E-01  1.028E+00
   1   13    7     7     3    1.4676E+02  1.5954E+00   1.4516E+02  0.000E+00  0.000E+00  0.000E+00  1.02969E+03  2.270E+00  5.521E+01  5.584E-01  9.523E-01
   1   13    6     8     1    1.6843E+02  1.0401E+00   1.6739E+02  0.000E+00  0.000E+00  0.000E+00  1.02481E+03  2.939E+00  4.261E+01  4.342E-01  7.985E-01
   1   13    5     8     2    1.6739E+02  2.8907E-01   1.6710E+02  0.000E+00  0.000E+00  0.000E+00  1.01856E+03  2.934E+00  4.255E+01  4.336E-01  2.223E-01
   1   13    4     8     3    1.6710E+02 -2.0521E+00   1.6915E+02  0.000E+00  0.000E+00  0.000E+00  1.01231E+03  2.940E+00  4.263E+01  4.344E+00 -1.575E-01
   1   13    3     8     4    1.6915E+02 -3.4633E+00   1.7261E+02  0.000E+00  0.000E+00  0.000E+00  1.00608E+03  2.958E+00  4.289E+01  4.371E+00 -2.641E-01
   1   13    2     8     5    1.7261E+02 -2.5353E+00   1.7515E+02  0.000E+00  0.000E+00  0.000E+00  9.99852E+02  2.977E+00  4.317E+01  4.399E+00 -1.921E-01
   1   13    1     8     6    1.7515E+02 -1.9733E+00   1.7712E+02  0.000E+00  0.000E+00  0.000E+00  9.94867E+02  2.992E+00  4.338E+01  2.652E+00 -2.480E-01





UNSATURATED ZONE PACKAGE VOLUMETRIC BUDGET FOR  TIME STEP    30 STRESS PERIOD   30
  ------------------------------------------------------------------------------



     CUMULATIVE VOLUMES      L**3       RATES FOR THIS TIME STEP      L**3/T
     ------------------                 ------------------------

           IN:                                      IN:
           ---                                      ---
        INFILTRATION =   901945050.0873          INFILTRATION =           8.3169

          OUT:                                     OUT:
          ----                                     ----
              UZF ET =   901113613.1153                UZF ET =           8.3175
        UZF RECHARGE =       73224.0000          UZF RECHARGE =       0.0000E+00

            IN - OUT =      758212.9721              IN - OUT =      -6.0654E-04

          STORAGE:                                 STORAGE:
          --------                                 --------
      STORAGE CHANGE =      758206.4037        STORAGE CHANGE =      -6.0643E-04

 PERCENT DISCREPANCY IS DIFFERENCE BETWEEN IN-OUT MINUS CHANGE IN STORAGE
 DIVIDED BY THE AVERAGE OF IN AND OUT TIMES 100

 PERCENT DISCREPANCY =           0.00     PERCENT DISCREPANCY =           0.00






1
  VOLUMETRIC BUDGET FOR AGRICULTURAL FIELDS AT  END OF TIME STEP   30, STRESS PERIOD  30
  ------------------------------------------------------------------------------

     CUMULATIVE VOLUMES      L**3       RATES FOR THIS TIME STEP      L**3/T
     ------------------                 ------------------------

           IN:                                      IN:
           ---                                      ---
               AG WELLS  =   837230144.0000                 AG WELLS  =           7.4694
      DIVERSION SEGMENTS =           0.0000        DIVERSION SEGMENTS =           0.0000
       IRRIGATION PONDS  =           0.0000         IRRIGATION PONDS  =           0.0000
           GW IRRIGATION =           0.0000             GW IRRIGATION =           0.0000
           SW IRRIGATION =           0.0000             SW IRRIGATION =           0.0000
        SYSTEM LOSSES GW =           0.0000          SYSTEM LOSSES GW =           0.0000
        SYSTEM LOSSES SW =           0.0000          SYSTEM LOSSES SW =           0.0000

                TOTAL IN =   837230144.0000                  TOTAL IN =           7.4694

          OUT:                                     OUT:
          ----                                     ----
               AG WELLS  =           0.0000                 AG WELLS  =           0.0000
      DIVERSION SEGMENTS =           0.0000        DIVERSION SEGMENTS =           0.0000
       IRRIGATION PONDS  =           0.0000         IRRIGATION PONDS  =           0.0000
           GW IRRIGATION =   837230144.0000             GW IRRIGATION =           7.4694
           SW IRRIGATION =           0.0000             SW IRRIGATION =           0.0000
        SYSTEM LOSSES GW =           0.0000          SYSTEM LOSSES GW =           0.0000
        SYSTEM LOSSES SW =           0.0000          SYSTEM LOSSES SW =           0.0000

               TOTAL OUT =   837230144.0000                 TOTAL OUT =           7.4694

                IN - OUT =           0.0000                  IN - OUT =           0.0000

     PERCENT DISCREPANCY =           0.00         PERCENT DISCREPANCY =           0.00



1
  VOLUMETRIC BUDGET FOR ENTIRE MODEL AT END OF TIME STEP   30, STRESS PERIOD  30
  ------------------------------------------------------------------------------

     CUMULATIVE VOLUMES      L**3       RATES FOR THIS TIME STEP      L**3/T
     ------------------                 ------------------------

           IN:                                      IN:
           ---                                      ---
             STORAGE     =  1170687488.0000               STORAGE     =           6.0338
       CONSTANT HEAD     =           0.0000         CONSTANT HEAD     =           0.0000
     HEAD DEP BOUNDS     =    21806446.0000       HEAD DEP BOUNDS     =           0.2864
      STREAM LEAKAGE     =   939862976.0000        STREAM LEAKAGE     =          11.9007
        UZF RECHARGE     =       73223.9531          UZF RECHARGE     =           0.0000
               GW ET     =           0.0000                 GW ET     =           0.0000
     SURFACE LEAKAGE     =           0.0000       SURFACE LEAKAGE     =           0.0000
           AG WELLS      =           0.0000             AG WELLS      =           0.0000

                TOTAL IN =  2132430080.0000                  TOTAL IN =          18.2209

          OUT:                                     OUT:
          ----                                     ----
             STORAGE     =   466259456.0000               STORAGE     =           0.4380
       CONSTANT HEAD     =           0.0000         CONSTANT HEAD     =           0.0000
     HEAD DEP BOUNDS     =    22390590.0000       HEAD DEP BOUNDS     =           0.2892
      STREAM LEAKAGE     =   788951360.0000        STREAM LEAKAGE     =          10.0240
        UZF RECHARGE     =           0.0000          UZF RECHARGE     =           0.0000
               GW ET     =    17603406.0000                 GW ET     =           0.0000
     SURFACE LEAKAGE     =           0.0000       SURFACE LEAKAGE     =           0.0000
           AG WELLS      =   837230144.0000             AG WELLS      =           7.4694

               TOTAL OUT =  2132434944.0000                 TOTAL OUT =          18.2206

                IN - OUT =       -4864.0000                  IN - OUT =       3.0327E-04

     PERCENT DISCREPANCY =          -0.00         PERCENT DISCREPANCY =           0.00






         TIME SUMMARY AT END OF TIME STEP   30 IN STRESS PERIOD   30
                    SECONDS     MINUTES      HOURS       DAYS        YEARS
                    -----------------------------------------------------------
   TIME STEP LENGTH  87667.      1461.1      24.352      1.0147     2.77799E-03
 STRESS PERIOD TIME 2.63000E+06  43833.      730.56      30.440     8.33397E-02
         TOTAL TIME 7.63565E+07 1.27261E+06  21210.      883.76      2.4196    
1
1
                            STRESS PERIOD NO.   31, LENGTH =   2630000.    
                            -----------------------------------------------

                              NUMBER OF TIME STEPS =    30

                               MULTIPLIER FOR DELT =     1.000

                            INITIAL TIME STEP SIZE =   87666.66    

 REUSING NON-PARAMETER GHB CELLS FROM LAST STRESS PERIOD

      2 GHB CELLS

 REUSING STREAM SEGMENT DATA FROM LAST STRESS PERIOD



            AREAL INFILTRATION RATE
 READING ON UNIT   19 WITH FORMAT: (FREE)              

            1           2           3           4           5           6           7           8           9          10
 ........................................................................................................................
   1   1.0000E-10  2.0000E-10   0.000       0.000       0.000       0.000       0.000       0.000       0.000       0.000    
   2   2.0000E-10  1.0000E-10  2.0000E-10   0.000       0.000      8.0000E-10  8.0000E-10  5.0000E-10   0.000       0.000    
   3    0.000      5.0000E-10  1.0000E-10  1.0000E-10  8.0000E-10  8.0000E-10  5.0000E-10  5.0000E-10   0.000       0.000    
   4   8.0000E-10  5.0000E-10  1.0000E-10  1.0000E-10  1.0000E-10  1.0000E-10  1.0000E-10  1.0000E-10  2.0000E-10   0.000    
   5   8.0000E-10  5.0000E-10  1.0000E-10  1.0000E-10  1.0000E-10  1.0000E-10  1.0000E-10  1.0000E-10  1.0000E-10  1.0000E-10
   6   8.0000E-10  5.0000E-10  5.0000E-10  2.0000E-10  2.0000E-10  1.0000E-10  1.0000E-10  1.0000E-10  1.0000E-10  5.0000E-10
   7   8.0000E-10  5.0000E-10  5.0000E-10  2.0000E-10  2.0000E-10  1.0000E-10  1.0000E-10  2.0000E-10  2.0000E-10   0.000    
   8    0.000      5.0000E-10  5.0000E-10  2.0000E-10  2.0000E-10  1.0000E-10  1.0000E-10  2.0000E-10  5.0000E-10   0.000    
   9    0.000      5.0000E-10  5.0000E-10  2.0000E-10  2.0000E-10  1.0000E-10  1.0000E-10  2.0000E-10  5.0000E-10   0.000    
  10    0.000      5.0000E-10  5.0000E-10  2.0000E-10  2.0000E-10  1.0000E-10  1.0000E-10  2.0000E-10  5.0000E-10  8.0000E-10
  11    0.000      1.0000E-10  1.0000E-10  1.0000E-10  1.0000E-10  1.0000E-10  1.0000E-10  2.0000E-10  5.0000E-10   0.000    
  12   1.0000E-10  1.0000E-10  1.0000E-10  1.0000E-10  1.0000E-10  1.0000E-10  1.0000E-10  1.0000E-10  2.0000E-10   0.000    
  13   1.0000E-10  1.0000E-10  2.0000E-10  2.0000E-10  2.0000E-10  2.0000E-10  2.0000E-10  1.0000E-10  1.0000E-10   0.000    
  14    0.000      2.0000E-10  5.0000E-10  5.0000E-10  5.0000E-10  5.0000E-10  5.0000E-10  2.0000E-10  1.0000E-10   0.000    
  15    0.000       0.000      8.0000E-10  8.0000E-10  8.0000E-10  8.0000E-10   0.000       0.000       0.000       0.000    

                  ET RATE =  1.500000E-07

 USING ET EXTINCTION DEPTH FROM PREVIOUS STRESS PERIOD. CURRENT PERIOD IS:      31

 USING EXTINCTION WATER CONTENT FROM PREVIOUS STRESS PERIOD. CURRENT PERIOD IS:      31

 USING AIR ENTRY PRESSURE FROM PREVIOUS STRESS PERIOD. CURRENT PERIOD IS:      31

 USING ROOT PRESSURE HEAD FROM PREVIOUS STRESS PERIOD. CURRENT PERIOD IS:      31

 USING ROOT ACTIVITY FROM PREVIOUS STRESS PERIOD. CURRENT PERIOD IS:      31

 PROCESSING AG STRESS PERIOD DATA

 READING AG STRESS PERIOD DATA

 READING IRRIGATION WELL

 NO IRRPOND OR REUSING IRRPOND DATA FROM LAST STRESS PERIOD

 END PROCESSING AG STRESS PERIOD DATA OPTIONS
 
 SOLVING FOR HEAD 
                                                   Max.-Head-Change                         Max.-Flux-Residual
  Residual-Control   Outer-Iter.   Inner-Iter.     Column Row Layer    Maximum-Head-Change  Column Row Layer    Maximum-Flux-Residual          L2-NORM 
          0                 1           2             4    7     1      -0.5669910280E-01       4    7    1        -0.2964171869E+01      0.7049565635E+01
          0                 2           2             4    7     1       0.5515246691E-02       4    7    1         0.2964153365E+00      0.7049490286E+00
          0                 3           2             4    7     1      -0.3755681019E-03       4    7    1        -0.2074909775E-01      0.4934650811E-01
          0                 4           1             4    7     1       0.1494420471E-04       4    7    1         0.8486391973E-03      0.2018277181E-02

    ------------------------------------------------
       NWT REQUIRED            4 OUTER ITERATIONS 
       AND A TOTAL OF          7 INNER ITERATIONS.
    ------------------------------------------------

 NO OUTPUT CONTROL FOR STRESS PERIOD   31   TIME STEP    1
 
 SOLVING FOR HEAD 
                                                   Max.-Head-Change                         Max.-Flux-Residual
  Residual-Control   Outer-Iter.   Inner-Iter.     Column Row Layer    Maximum-Head-Change  Column Row Layer    Maximum-Flux-Residual          L2-NORM 
          0                 1           2             5    8     1       0.1903040745E-01       5    8    1         0.1024083642E+01      0.2352465962E+01
          0                 2           2             4    7     1      -0.7128047893E-01       5    8    1        -0.3847315845E+01      0.9401545684E+01
          0                 3           2             4    7     1       0.4853902417E-02       5    8    1         0.2692579981E+00      0.6580406947E+00
          0                 4           2             4    7     1      -0.1931414584E-03       5    8    1        -0.1100853949E-01      0.2691183802E-01
          0                 5           1             4    7     1       0.2381517965E-05       5    8    1         0.1392283234E-03      0.3419024526E-03

    ------------------------------------------------
       NWT REQUIRED            5 OUTER ITERATIONS 
       AND A TOTAL OF          9 INNER ITERATIONS.
    ------------------------------------------------

 NO OUTPUT CONTROL FOR STRESS PERIOD   31   TIME STEP    2
 
 SOLVING FOR HEAD 
                                                   Max.-Head-Change                         Max.-Flux-Residual
  Residual-Control   Outer-Iter.   Inner-Iter.     Column Row Layer    Maximum-Head-Change  Column Row Layer    Maximum-Flux-Residual          L2-NORM 
          0                 1           2             5    8     1       0.2035542210E-01       5    8    1         0.1096886998E+01      0.2485869514E+01
          0                 2           2             4    7     1      -0.7131814296E-01       5    8    1        -0.3854596819E+01      0.9413852384E+01
          0                 3           2             4    7     1       0.4856467495E-02       5    8    1         0.2697706051E+00      0.6589023066E+00
          0                 4           2             4    7     1      -0.1932435243E-03       5    8    1        -0.1102979580E-01      0.2694662512E-01
          0                 5           1             4    7     1       0.2382776676E-05       5    8    1         0.1395174254E-03      0.3421720795E-03

    ------------------------------------------------
       NWT REQUIRED            5 OUTER ITERATIONS 
       AND A TOTAL OF          9 INNER ITERATIONS.
    ------------------------------------------------

 NO OUTPUT CONTROL FOR STRESS PERIOD   31   TIME STEP    3
 
 SOLVING FOR HEAD 
                                                   Max.-Head-Change                         Max.-Flux-Residual
  Residual-Control   Outer-Iter.   Inner-Iter.     Column Row Layer    Maximum-Head-Change  Column Row Layer    Maximum-Flux-Residual          L2-NORM 
          0                 1           2             5    8     1       0.2160955221E-01       5    8    1         0.1165734944E+01      0.2617094585E+01
          0                 2           2             4    7     1      -0.7135738585E-01       5    8    1        -0.3861482013E+01      0.9425752638E+01
          0                 3           2             4    7     1       0.4859140063E-02       5    8    1         0.2702553069E+00      0.6597345519E+00
          0                 4           2             4    7     1      -0.1933498668E-03       5    8    1        -0.1104989095E-01      0.2698023664E-01
          0                 5           1             4    7     1       0.2384087473E-05       5    8    1         0.1397904591E-03      0.3424607426E-03

    ------------------------------------------------
       NWT REQUIRED            5 OUTER ITERATIONS 
       AND A TOTAL OF          9 INNER ITERATIONS.
    ------------------------------------------------

 NO OUTPUT CONTROL FOR STRESS PERIOD   31   TIME STEP    4
 
 SOLVING FOR HEAD 
                                                   Max.-Head-Change                         Max.-Flux-Residual
  Residual-Control   Outer-Iter.   Inner-Iter.     Column Row Layer    Maximum-Head-Change  Column Row Layer    Maximum-Flux-Residual          L2-NORM 
          0                 1           2             5    8     1       0.2279748728E-01       5    8    1         0.1230892204E+01      0.2745500537E+01
          0                 2           2             4    7     1      -0.7139802101E-01       5    8    1        -0.3867998136E+01      0.9437263060E+01
          0                 3           2             4    7     1       0.4861907417E-02       5    8    1         0.2707139893E+00      0.6605400550E+00
          0                 4           2             4    7     1      -0.1934599818E-03       5    8    1        -0.1106890364E-01      0.2701285063E-01
          0                 5           1             4    7     1       0.2385444981E-05       5    8    1         0.1400485639E-03      0.3427564187E-03

    ------------------------------------------------
       NWT REQUIRED            5 OUTER ITERATIONS 
       AND A TOTAL OF          9 INNER ITERATIONS.
    ------------------------------------------------

 NO OUTPUT CONTROL FOR STRESS PERIOD   31   TIME STEP    5
 
 SOLVING FOR HEAD 
                                                   Max.-Head-Change                         Max.-Flux-Residual
  Residual-Control   Outer-Iter.   Inner-Iter.     Column Row Layer    Maximum-Head-Change  Column Row Layer    Maximum-Flux-Residual          L2-NORM 
          0                 1           2             5    8     1       0.2392397478E-01       5    8    1         0.1292625472E+01      0.2870703072E+01
          0                 2           2             4    7     1      -0.7143991214E-01       5    8    1        -0.3874172097E+01      0.9448402277E+01
          0                 3           2             4    7     1       0.4864760274E-02       5    8    1         0.2711485486E+00      0.6613204022E+00
          0                 4           2             4    7     1      -0.1935734987E-03       5    8    1        -0.1108691276E-01      0.2704454297E-01
          0                 5           1             4    7     1       0.2386845054E-05       5    8    1         0.1402927653E-03      0.3430568002E-03

    ------------------------------------------------
       NWT REQUIRED            5 OUTER ITERATIONS 
       AND A TOTAL OF          9 INNER ITERATIONS.
    ------------------------------------------------

 NO OUTPUT CONTROL FOR STRESS PERIOD   31   TIME STEP    6
 
 SOLVING FOR HEAD 
                                                   Max.-Head-Change                         Max.-Flux-Residual
  Residual-Control   Outer-Iter.   Inner-Iter.     Column Row Layer    Maximum-Head-Change  Column Row Layer    Maximum-Flux-Residual          L2-NORM 
          0                 1           2             5    8     1       0.2499267844E-01       5    8    1         0.1351141621E+01      0.2992464367E+01
          0                 2           2             4    7     1      -0.7148291855E-01       5    8    1        -0.3880024103E+01      0.9459184406E+01
          0                 3           2             4    7     1       0.4867689058E-02       5    8    1         0.2715604131E+00      0.6620772385E+00
          0                 4           2             4    7     1      -0.1936900368E-03       5    8    1        -0.1110397804E-01      0.2707541886E-01
          0                 5           1             4    7     1       0.2388281981E-05       5    8    1         0.1405239559E-03      0.3433566845E-03

    ------------------------------------------------
       NWT REQUIRED            5 OUTER ITERATIONS 
       AND A TOTAL OF          9 INNER ITERATIONS.
    ------------------------------------------------

 NO OUTPUT CONTROL FOR STRESS PERIOD   31   TIME STEP    7
 
 SOLVING FOR HEAD 
                                                   Max.-Head-Change                         Max.-Flux-Residual
  Residual-Control   Outer-Iter.   Inner-Iter.     Column Row Layer    Maximum-Head-Change  Column Row Layer    Maximum-Flux-Residual          L2-NORM 
          0                 1           2             5    8     1       0.2600783151E-01       5    8    1         0.1406677699E+01      0.3110672201E+01
          0                 2           2             4    7     1      -0.7152689538E-01       5    8    1        -0.3885578100E+01      0.9469626387E+01
          0                 3           2             4    7     1       0.4870683903E-02       5    8    1         0.2719512696E+00      0.6628105386E+00
          0                 4           2             4    7     1      -0.1938092034E-03       5    8    1        -0.1112016952E-01      0.2710539715E-01
          0                 5           1             4    7     1       0.2389751391E-05       5    8    1         0.1407430857E-03      0.3436611325E-03

    ------------------------------------------------
       NWT REQUIRED            5 OUTER ITERATIONS 
       AND A TOTAL OF          9 INNER ITERATIONS.
    ------------------------------------------------

 NO OUTPUT CONTROL FOR STRESS PERIOD   31   TIME STEP    8
 
 SOLVING FOR HEAD 
                                                   Max.-Head-Change                         Max.-Flux-Residual
  Residual-Control   Outer-Iter.   Inner-Iter.     Column Row Layer    Maximum-Head-Change  Column Row Layer    Maximum-Flux-Residual          L2-NORM 
          0                 1           2             5    8     1       0.2697276809E-01       5    8    1         0.1459421775E+01      0.3225280016E+01
          0                 2           2             4    7     1      -0.7157174182E-01       5    8    1        -0.3890852892E+01      0.9479741859E+01
          0                 3           2             4    7     1       0.4873749896E-02       5    8    1         0.2741215009E+00      0.6642675567E+00
          0                 4           2             4    7     1      -0.1939311907E-03       5    8    1        -0.1120966925E-01      0.2716506386E-01
          0                 5           1             4    7     1       0.2391255527E-05       5    8    1         0.1419304897E-03      0.3443126746E-03

    ------------------------------------------------
       NWT REQUIRED            5 OUTER ITERATIONS 
       AND A TOTAL OF          9 INNER ITERATIONS.
    ------------------------------------------------

 NO OUTPUT CONTROL FOR STRESS PERIOD   31   TIME STEP    9
 
 SOLVING FOR HEAD 
                                                   Max.-Head-Change                         Max.-Flux-Residual
  Residual-Control   Outer-Iter.   Inner-Iter.     Column Row Layer    Maximum-Head-Change  Column Row Layer    Maximum-Flux-Residual          L2-NORM 
          0                 1           2             5    8     1       0.2788376156E-01       5    8    1         0.1510970491E+01      0.3337085215E+01
          0                 2           2             4    7     1      -0.7161731544E-01       5    8    1        -0.3895542917E+01      0.9489412310E+01
          0                 3           2             5    8     1       0.4878879165E-02       5    8    1         0.2764116736E+00      0.6657739658E+00
          0                 4           2             5    8     1      -0.1941352850E-03       5    8    1        -0.1130458923E-01      0.2722761971E-01
          0                 5           1             5    8     1       0.2393772052E-05       5    8    1         0.1432301274E-03      0.3451273915E-03

    ------------------------------------------------
       NWT REQUIRED            5 OUTER ITERATIONS 
       AND A TOTAL OF          9 INNER ITERATIONS.
    ------------------------------------------------

 NO OUTPUT CONTROL FOR STRESS PERIOD   31   TIME STEP   10
 
 SOLVING FOR HEAD 
                                                   Max.-Head-Change                         Max.-Flux-Residual
  Residual-Control   Outer-Iter.   Inner-Iter.     Column Row Layer    Maximum-Head-Change  Column Row Layer    Maximum-Flux-Residual          L2-NORM 
          0                 1           2             5    8     1       0.2878712641E-01       5    8    1         0.1560380264E+01      0.3445551598E+01
          0                 2           2             4    7     1      -0.7166347624E-01       5    8    1        -0.3900947384E+01      0.9499182366E+01
          0                 3           2             4    7     1       0.4879987181E-02       5    8    1         0.2730399910E+00      0.6648945830E+00
          0                 4           2             4    7     1      -0.1941793769E-03       5    8    1        -0.1116495287E-01      0.2719076939E-01
          0                 5           1             4    7     1       0.2394315436E-05       5    8    1         0.1413310470E-03      0.3446016456E-03

    ------------------------------------------------
       NWT REQUIRED            5 OUTER ITERATIONS 
       AND A TOTAL OF          9 INNER ITERATIONS.
    ------------------------------------------------

 NO OUTPUT CONTROL FOR STRESS PERIOD   31   TIME STEP   11
 
 SOLVING FOR HEAD 
                                                   Max.-Head-Change                         Max.-Flux-Residual
  Residual-Control   Outer-Iter.   Inner-Iter.     Column Row Layer    Maximum-Head-Change  Column Row Layer    Maximum-Flux-Residual          L2-NORM 
          0                 1           2             5    8     1       0.2964610490E-01       5    8    1         0.1607320777E+01      0.3550488695E+01
          0                 2           2             4    7     1      -0.7171020484E-01       5    8    1        -0.3905641646E+01      0.9508468607E+01
          0                 3           2             4    7     1       0.4883169351E-02       5    8    1         0.2733703226E+00      0.6655476176E+00
          0                 4           2             4    7     1      -0.1943059977E-03       5    8    1        -0.1117863145E-01      0.2721763064E-01
          0                 5           1             4    7     1       0.2395877147E-05       5    8    1         0.1415158220E-03      0.3449111822E-03

    ------------------------------------------------
       NWT REQUIRED            5 OUTER ITERATIONS 
       AND A TOTAL OF          9 INNER ITERATIONS.
    ------------------------------------------------

 NO OUTPUT CONTROL FOR STRESS PERIOD   31   TIME STEP   12
 
 SOLVING FOR HEAD 
                                                   Max.-Head-Change                         Max.-Flux-Residual
  Residual-Control   Outer-Iter.   Inner-Iter.     Column Row Layer    Maximum-Head-Change  Column Row Layer    Maximum-Flux-Residual          L2-NORM 
          0                 1           2             5    8     1       0.3046369036E-01       5    8    1         0.1651959843E+01      0.3651995068E+01
          0                 2           2             4    7     1      -0.7175737809E-01       5    8    1        -0.3910105762E+01      0.9517475611E+01
          0                 3           2             4    7     1       0.4886381785E-02       5    8    1         0.2736844295E+00      0.6661811615E+00
          0                 4           2             4    7     1      -0.1944338229E-03       5    8    1        -0.1119163530E-01      0.2724372083E-01
          0                 5           1             4    7     1       0.2397453308E-05       5    8    1         0.1416912528E-03      0.3452172408E-03

    ------------------------------------------------
       NWT REQUIRED            5 OUTER ITERATIONS 
       AND A TOTAL OF          9 INNER ITERATIONS.
    ------------------------------------------------

 NO OUTPUT CONTROL FOR STRESS PERIOD   31   TIME STEP   13
 
 SOLVING FOR HEAD 
                                                   Max.-Head-Change                         Max.-Flux-Residual
  Residual-Control   Outer-Iter.   Inner-Iter.     Column Row Layer    Maximum-Head-Change  Column Row Layer    Maximum-Flux-Residual          L2-NORM 
          0                 1           2             5    8     1       0.3124264559E-01       5    8    1         0.1694452664E+01      0.3750174352E+01
          0                 2           2             4    7     1      -0.7180488435E-01       5    8    1        -0.3914355492E+01      0.9526214410E+01
          0                 3           2             4    7     1       0.4889616883E-02       5    8    1         0.2739834231E+00      0.6667959598E+00
          0                 4           2             4    7     1      -0.1945625495E-03       5    8    1        -0.1120401070E-01      0.2726906555E-01
          0                 5           1             4    7     1       0.2399040110E-05       5    8    1         0.1418580421E-03      0.3455290479E-03

    ------------------------------------------------
       NWT REQUIRED            5 OUTER ITERATIONS 
       AND A TOTAL OF          9 INNER ITERATIONS.
    ------------------------------------------------

 NO OUTPUT CONTROL FOR STRESS PERIOD   31   TIME STEP   14
 
 SOLVING FOR HEAD 
                                                   Max.-Head-Change                         Max.-Flux-Residual
  Residual-Control   Outer-Iter.   Inner-Iter.     Column Row Layer    Maximum-Head-Change  Column Row Layer    Maximum-Flux-Residual          L2-NORM 
          0                 1           2             5    8     1       0.3198509481E-01       5    8    1         0.1734918956E+01      0.3845139881E+01
          0                 2           2             4    7     1      -0.7185265863E-01       5    8    1        -0.3918402329E+01      0.9534695181E+01
          0                 3           2             4    7     1       0.4892870219E-02       5    8    1         0.2742681155E+00      0.6673927010E+00
          0                 4           2             4    7     1      -0.1946920029E-03       5    8    1        -0.1121579156E-01      0.2729368761E-01
          0                 5           1             4    7     1       0.2400636769E-05       5    8    1         0.1420166493E-03      0.3458232558E-03

    ------------------------------------------------
       NWT REQUIRED            5 OUTER ITERATIONS 
       AND A TOTAL OF          9 INNER ITERATIONS.
    ------------------------------------------------

 NO OUTPUT CONTROL FOR STRESS PERIOD   31   TIME STEP   15
 
 SOLVING FOR HEAD 
                                                   Max.-Head-Change                         Max.-Flux-Residual
  Residual-Control   Outer-Iter.   Inner-Iter.     Column Row Layer    Maximum-Head-Change  Column Row Layer    Maximum-Flux-Residual          L2-NORM 
          0                 1           2             5    8     1       0.3269370831E-01       5    8    1         0.1773508081E+01      0.3937024948E+01
          0                 2           2             4    7     1      -0.7190061515E-01       5    8    1        -0.3922261450E+01      0.9542929992E+01
          0                 3           2             4    7     1       0.4896135953E-02       5    8    1         0.2745395763E+00      0.6679722113E+00
          0                 4           2             4    7     1      -0.1948219485E-03       5    8    1        -0.1122702238E-01      0.2731761796E-01
          0                 5           1             4    7     1       0.2402238805E-05       5    8    1         0.1421676679E-03      0.3461509435E-03

    ------------------------------------------------
       NWT REQUIRED            5 OUTER ITERATIONS 
       AND A TOTAL OF          9 INNER ITERATIONS.
    ------------------------------------------------

 NO OUTPUT CONTROL FOR STRESS PERIOD   31   TIME STEP   16
 
 SOLVING FOR HEAD 
                                                   Max.-Head-Change                         Max.-Flux-Residual
  Residual-Control   Outer-Iter.   Inner-Iter.     Column Row Layer    Maximum-Head-Change  Column Row Layer    Maximum-Flux-Residual          L2-NORM 
          0                 1           2             5    8     1       0.3337053708E-01       5    8    1         0.1810334956E+01      0.4025939904E+01
          0                 2           2             4    7     1      -0.7194868275E-01       5    8    1        -0.3925944345E+01      0.9550928394E+01
          0                 3           2             4    7     1       0.4899409240E-02       5    8    1         0.2747986155E+00      0.6685351413E+00
          0                 4           2             4    7     1      -0.1949521959E-03       5    8    1        -0.1123773681E-01      0.2734087899E-01
          0                 5           1             4    7     1       0.2403844986E-05       5    8    1         0.1423115841E-03      0.3464146443E-03

    ------------------------------------------------
       NWT REQUIRED            5 OUTER ITERATIONS 
       AND A TOTAL OF          9 INNER ITERATIONS.
    ------------------------------------------------

 NO OUTPUT CONTROL FOR STRESS PERIOD   31   TIME STEP   17
 
 SOLVING FOR HEAD 
                                                   Max.-Head-Change                         Max.-Flux-Residual
  Residual-Control   Outer-Iter.   Inner-Iter.     Column Row Layer    Maximum-Head-Change  Column Row Layer    Maximum-Flux-Residual          L2-NORM 
          0                 1           2             5    8     1       0.3401733152E-01       5    8    1         0.1845498080E+01      0.4111998206E+01
          0                 2           2             4    7     1      -0.7199680060E-01       5    8    1        -0.3929461103E+01      0.9558700007E+01
          0                 3           2             4    7     1       0.4902685938E-02       5    8    1         0.2750459462E+00      0.6690821517E+00
          0                 4           2             4    7     1      -0.1950825784E-03       5    8    1        -0.1124796470E-01      0.2736349484E-01
          0                 5           1             4    7     1       0.2405452735E-05       5    8    1         0.1424488178E-03      0.3467033466E-03

    ------------------------------------------------
       NWT REQUIRED            5 OUTER ITERATIONS 
       AND A TOTAL OF          9 INNER ITERATIONS.
    ------------------------------------------------

 NO OUTPUT CONTROL FOR STRESS PERIOD   31   TIME STEP   18
 
 SOLVING FOR HEAD 
                                                   Max.-Head-Change                         Max.-Flux-Residual
  Residual-Control   Outer-Iter.   Inner-Iter.     Column Row Layer    Maximum-Head-Change  Column Row Layer    Maximum-Flux-Residual          L2-NORM 
          0                 1           2             5    8     1       0.3463628570E-01       5    8    1         0.1879119602E+01      0.4195326727E+01
          0                 2           2             4    7     1      -0.7204491205E-01       5    8    1        -0.3932823463E+01      0.9566253619E+01
          0                 3           2             4    7     1       0.4905962191E-02       5    8    1         0.2752823942E+00      0.6696138467E+00
          0                 4           2             4    7     1      -0.1952129432E-03       5    8    1        -0.1125774020E-01      0.2738548861E-01
          0                 5           1             4    7     1       0.2407059812E-05       5    8    1         0.1425798127E-03      0.3469884017E-03

    ------------------------------------------------
       NWT REQUIRED            5 OUTER ITERATIONS 
       AND A TOTAL OF          9 INNER ITERATIONS.
    ------------------------------------------------

 NO OUTPUT CONTROL FOR STRESS PERIOD   31   TIME STEP   19
 
 SOLVING FOR HEAD 
                                                   Max.-Head-Change                         Max.-Flux-Residual
  Residual-Control   Outer-Iter.   Inner-Iter.     Column Row Layer    Maximum-Head-Change  Column Row Layer    Maximum-Flux-Residual          L2-NORM 
          0                 1           2             5    8     1       0.3522871833E-01       5    8    1         0.1911274041E+01      0.4276033009E+01
          0                 2           2             4    7     1      -0.7209296549E-01       5    8    1        -0.3936039114E+01      0.9573597883E+01
          0                 3           2             4    7     1       0.4909234484E-02       5    8    1         0.2755085042E+00      0.6701307689E+00
          0                 4           2             4    7     1      -0.1953431507E-03       5    8    1        -0.1126708628E-01      0.2740687451E-01
          0                 5           1             4    7     1       0.2408665769E-05       5    8    1         0.1427049162E-03      0.3472675106E-03

    ------------------------------------------------
       NWT REQUIRED            5 OUTER ITERATIONS 
       AND A TOTAL OF          9 INNER ITERATIONS.
    ------------------------------------------------

 NO OUTPUT CONTROL FOR STRESS PERIOD   31   TIME STEP   20
 
 SOLVING FOR HEAD 
                                                   Max.-Head-Change                         Max.-Flux-Residual
  Residual-Control   Outer-Iter.   Inner-Iter.     Column Row Layer    Maximum-Head-Change  Column Row Layer    Maximum-Flux-Residual          L2-NORM 
          0                 1           2             5    8     1       0.3579641822E-01       5    8    1         0.1942061161E+01      0.4354220898E+01
          0                 2           2             4    7     1      -0.7214088265E-01       5    8    1        -0.3939118034E+01      0.9580740599E+01
          0                 3           2             4    7     1       0.4912497489E-02       5    8    1         0.2757249784E+00      0.6706333170E+00
          0                 4           2             4    7     1      -0.1954729884E-03       5    8    1        -0.1127603194E-01      0.2742765359E-01
          0                 5           1             4    7     1       0.2410266573E-05       5    8    1         0.1428245318E-03      0.3475379898E-03

    ------------------------------------------------
       NWT REQUIRED            5 OUTER ITERATIONS 
       AND A TOTAL OF          9 INNER ITERATIONS.
    ------------------------------------------------

 NO OUTPUT CONTROL FOR STRESS PERIOD   31   TIME STEP   21
 
 SOLVING FOR HEAD 
                                                   Max.-Head-Change                         Max.-Flux-Residual
  Residual-Control   Outer-Iter.   Inner-Iter.     Column Row Layer    Maximum-Head-Change  Column Row Layer    Maximum-Flux-Residual          L2-NORM 
          0                 1           2             5    8     1       0.3634090627E-01       5    8    1         0.1971565863E+01      0.4430010526E+01
          0                 2           2             4    7     1      -0.7218864803E-01       5    8    1        -0.3942068950E+01      0.9587691156E+01
          0                 3           2             4    7     1       0.4915750150E-02       5    8    1         0.2759324320E+00      0.6711219311E+00
          0                 4           2             4    7     1      -0.1956024151E-03       5    8    1        -0.1128460281E-01      0.2744782018E-01
          0                 5           1             4    7     1       0.2411862560E-05       5    8    1         0.1429390004E-03      0.3478002426E-03

    ------------------------------------------------
       NWT REQUIRED            5 OUTER ITERATIONS 
       AND A TOTAL OF          9 INNER ITERATIONS.
    ------------------------------------------------

 NO OUTPUT CONTROL FOR STRESS PERIOD   31   TIME STEP   22
 
 SOLVING FOR HEAD 
                                                   Max.-Head-Change                         Max.-Flux-Residual
  Residual-Control   Outer-Iter.   Inner-Iter.     Column Row Layer    Maximum-Head-Change  Column Row Layer    Maximum-Flux-Residual          L2-NORM 
          0                 1           2             5    8     1       0.3686345106E-01       5    8    1         0.1999859172E+01      0.4503494508E+01
          0                 2           2             4    7     1      -0.7223620902E-01       5    8    1        -0.3944898489E+01      0.9594455262E+01
          0                 3           2             4    7     1       0.4918988886E-02       5    8    1         0.2761313331E+00      0.6715966735E+00
          0                 4           2             4    7     1      -0.1957312871E-03       5    8    1        -0.1129281844E-01      0.2746734362E-01
          0                 5           1             4    7     1       0.2413451602E-05       5    8    1         0.1430485800E-03      0.3480508471E-03

    ------------------------------------------------
       NWT REQUIRED            5 OUTER ITERATIONS 
       AND A TOTAL OF          9 INNER ITERATIONS.
    ------------------------------------------------

 NO OUTPUT CONTROL FOR STRESS PERIOD   31   TIME STEP   23
 
 SOLVING FOR HEAD 
                                                   Max.-Head-Change                         Max.-Flux-Residual
  Residual-Control   Outer-Iter.   Inner-Iter.     Column Row Layer    Maximum-Head-Change  Column Row Layer    Maximum-Flux-Residual          L2-NORM 
          0                 1           2             5    8     1       0.3736537619E-01       5    8    1         0.2027014690E+01      0.4574776132E+01
          0                 2           2             4    7     1      -0.7228350463E-01       5    8    1        -0.3947614249E+01      0.9601041017E+01
          0                 3           2             4    7     1       0.4922209544E-02       5    8    1         0.2763222171E+00      0.6720587388E+00
          0                 4           2             4    7     1      -0.1958594402E-03       5    8    1        -0.1130070106E-01      0.2748633232E-01
          0                 5           1             4    7     1       0.2415031572E-05       5    8    1         0.1431535973E-03      0.3482942170E-03

    ------------------------------------------------
       NWT REQUIRED            5 OUTER ITERATIONS 
       AND A TOTAL OF          9 INNER ITERATIONS.
    ------------------------------------------------

 NO OUTPUT CONTROL FOR STRESS PERIOD   31   TIME STEP   24
 
 SOLVING FOR HEAD 
                                                   Max.-Head-Change                         Max.-Flux-Residual
  Residual-Control   Outer-Iter.   Inner-Iter.     Column Row Layer    Maximum-Head-Change  Column Row Layer    Maximum-Flux-Residual          L2-NORM 
          0                 1           2             5    8     1       0.3784776580E-01       5    8    1         0.2053093213E+01      0.4643938768E+01
          0                 2           2             4    7     1      -0.7233052572E-01       5    8    1        -0.3950222310E+01      0.9607454544E+01
          0                 3           2             4    7     1       0.4925411501E-02       5    8    1         0.2765055126E+00      0.6725086894E+00
          0                 4           2             4    7     1      -0.1959868490E-03       5    8    1        -0.1130826851E-01      0.2750482170E-01
          0                 5           1             4    7     1       0.2416602804E-05       5    8    1         0.1432543067E-03      0.3485307632E-03

    ------------------------------------------------
       NWT REQUIRED            5 OUTER ITERATIONS 
       AND A TOTAL OF          9 INNER ITERATIONS.
    ------------------------------------------------

 NO OUTPUT CONTROL FOR STRESS PERIOD   31   TIME STEP   25
 
 SOLVING FOR HEAD 
                                                   Max.-Head-Change                         Max.-Flux-Residual
  Residual-Control   Outer-Iter.   Inner-Iter.     Column Row Layer    Maximum-Head-Change  Column Row Layer    Maximum-Flux-Residual          L2-NORM 
          0                 1           2             5    8     1       0.3831176663E-01       5    8    1         0.2078158796E+01      0.4711075185E+01
          0                 2           2             4    7     1      -0.7237722611E-01       5    8    1        -0.3952729077E+01      0.9613702039E+01
          0                 3           2             4    7     1       0.4928591615E-02       5    8    1         0.2766816718E+00      0.6729469755E+00
          0                 4           2             4    7     1      -0.1961133886E-03       5    8    1        -0.1131553961E-01      0.2752283214E-01
          0                 5           1             4    7     1       0.2418162834E-05       5    8    1         0.1433509510E-03      0.3487617248E-03

    ------------------------------------------------
       NWT REQUIRED            5 OUTER ITERATIONS 
       AND A TOTAL OF          9 INNER ITERATIONS.
    ------------------------------------------------

 NO OUTPUT CONTROL FOR STRESS PERIOD   31   TIME STEP   26
 
 SOLVING FOR HEAD 
                                                   Max.-Head-Change                         Max.-Flux-Residual
  Residual-Control   Outer-Iter.   Inner-Iter.     Column Row Layer    Maximum-Head-Change  Column Row Layer    Maximum-Flux-Residual          L2-NORM 
          0                 1           2             5    8     1       0.3875845139E-01       5    8    1         0.2102270895E+01      0.4776268784E+01
          0                 2           2             4    7     1      -0.7242358156E-01       5    8    1        -0.3955140735E+01      0.9619790804E+01
          0                 3           2             4    7     1       0.4931748234E-02       5    8    1         0.2768511298E+00      0.6733741059E+00
          0                 4           2             4    7     1      -0.1962389939E-03       5    8    1        -0.1132253246E-01      0.2754038381E-01
          0                 5           1             4    7     1       0.2419711888E-05       5    8    1         0.1434437852E-03      0.3489921480E-03

    ------------------------------------------------
       NWT REQUIRED            5 OUTER ITERATIONS 
       AND A TOTAL OF          9 INNER ITERATIONS.
    ------------------------------------------------

 NO OUTPUT CONTROL FOR STRESS PERIOD   31   TIME STEP   27
 
 SOLVING FOR HEAD 
                                                   Max.-Head-Change                         Max.-Flux-Residual
  Residual-Control   Outer-Iter.   Inner-Iter.     Column Row Layer    Maximum-Head-Change  Column Row Layer    Maximum-Flux-Residual          L2-NORM 
          0                 1           2             5    8     1       0.3918881637E-01       5    8    1         0.2125485140E+01      0.4839607177E+01
          0                 2           2             4    7     1      -0.7246955661E-01       5    8    1        -0.3957462369E+01      0.9625725618E+01
          0                 3           2             4    7     1       0.4934878944E-02       5    8    1         0.2770142458E+00      0.6737904168E+00
          0                 4           2             4    7     1      -0.1963635674E-03       5    8    1        -0.1132926197E-01      0.2755748920E-01
          0                 5           1             4    7     1       0.2421247947E-05       5    8    1         0.1435330228E-03      0.3492114779E-03

    ------------------------------------------------
       NWT REQUIRED            5 OUTER ITERATIONS 
       AND A TOTAL OF          9 INNER ITERATIONS.
    ------------------------------------------------

 NO OUTPUT CONTROL FOR STRESS PERIOD   31   TIME STEP   28
 
 SOLVING FOR HEAD 
                                                   Max.-Head-Change                         Max.-Flux-Residual
  Residual-Control   Outer-Iter.   Inner-Iter.     Column Row Layer    Maximum-Head-Change  Column Row Layer    Maximum-Flux-Residual          L2-NORM 
          0                 1           2             5    8     1       0.3960364780E-01       5    8    1         0.2147845330E+01      0.4901162264E+01
          0                 2           2             4    7     1      -0.7251513225E-01       5    8    1        -0.3959698599E+01      0.9631512226E+01
          0                 3           2             4    7     1       0.4937982452E-02       5    8    1         0.2771713454E+00      0.6741963110E+00
          0                 4           2             4    7     1      -0.1964870592E-03       5    8    1        -0.1133574175E-01      0.2757416661E-01
          0                 5           1             4    7     1       0.2422770453E-05       5    8    1         0.1436188281E-03      0.3494234404E-03

    ------------------------------------------------
       NWT REQUIRED            5 OUTER ITERATIONS 
       AND A TOTAL OF          9 INNER ITERATIONS.
    ------------------------------------------------

 NO OUTPUT CONTROL FOR STRESS PERIOD   31   TIME STEP   29
 
 SOLVING FOR HEAD 
                                                   Max.-Head-Change                         Max.-Flux-Residual
  Residual-Control   Outer-Iter.   Inner-Iter.     Column Row Layer    Maximum-Head-Change  Column Row Layer    Maximum-Flux-Residual          L2-NORM 
          0                 1           2             5    8     1       0.4000396444E-01       5    8    1         0.2169407922E+01      0.4961003100E+01
          0                 2           2             4    7     1      -0.7256030041E-01       5    8    1        -0.3961855069E+01      0.9637156260E+01
          0                 3           2             4    7     1       0.4941058207E-02       5    8    1         0.2773228256E+00      0.6745921835E+00
          0                 4           2             4    7     1      -0.1966094464E-03       5    8    1        -0.1134198815E-01      0.2759042984E-01
          0                 5           1             4    7     1       0.2424279404E-05       5    8    1         0.1437014416E-03      0.3496330384E-03

    ------------------------------------------------
       NWT REQUIRED            5 OUTER ITERATIONS 
       AND A TOTAL OF          9 INNER ITERATIONS.
    ------------------------------------------------

 NO OUTPUT CONTROL FOR STRESS PERIOD   31   TIME STEP   30



 STREAM LISTING     PERIOD     31   STEP       30

 LAYER ROW COL. STREAM  RCH.  FLOW INTO     FLOW TO   FLOW OUT OF   OVRLND.     DIRECT     STREAM       STREAM     STREAM     STREAM   STREAMBED  STREAMBED
                SEG.NO.  NO.  STRM. RCH.    AQUIFER    STRM. RCH.    RUNOFF     PRECIP       ET          HEAD       DEPTH      WIDTH   CONDCTNC.   GRADIENT

   1    1    1     1     1    1.9000E+01  2.1427E-01   1.8786E+01  0.000E+00  0.000E+00  0.000E+00  1.09413E+03  1.082E+00  1.166E+01  5.249E-02  1.361E+00
   1    2    2     1     2    1.8786E+01  3.3054E-01   1.8455E+01  0.000E+00  0.000E+00  0.000E+00  1.08914E+03  1.077E+00  1.158E+01  8.107E-02  1.359E+00
   1    3    3     1     3    1.8455E+01  2.8064E-01   1.8175E+01  0.000E+00  0.000E+00  0.000E+00  1.08349E+03  1.072E+00  1.149E+01  6.892E-02  1.357E+00
   1    3    4     1     4    1.8175E+01  2.5740E-01   1.7917E+01  0.000E+00  0.000E+00  0.000E+00  1.07848E+03  1.068E+00  1.140E+01  6.328E-02  1.356E+00
   1    4    5     2     1    1.5917E+01  3.0542E-01   1.5612E+01  0.000E+00  0.000E+00  0.000E+00  1.07285E+03  9.157E-01  1.200E+01  7.800E-02  1.305E+00
   1    5    6     2     2    1.5612E+01  2.3438E-01   1.5377E+01  0.000E+00  0.000E+00  0.000E+00  1.06742E+03  9.063E-01  1.200E+01  6.000E-02  1.302E+00
   1    6    6     2     3    1.5377E+01  2.3388E-01   1.5143E+01  0.000E+00  0.000E+00  0.000E+00  1.06269E+03  8.980E-01  1.200E+01  6.000E-02  1.299E+00
   1    7    6     2     4    1.5143E+01  2.3338E-01   1.4910E+01  0.000E+00  0.000E+00  0.000E+00  1.05797E+03  8.897E-01  1.200E+01  6.000E-02  1.297E+00
   1    8    6     2     5    1.4910E+01  2.3289E-01   1.4677E+01  0.000E+00  0.000E+00  0.000E+00  1.05324E+03  8.814E-01  1.200E+01  6.000E-02  1.294E+00
   1    3    5     3     1    2.0000E+00  2.8252E-01   1.7175E+00  0.000E+00  0.000E+00  0.000E+00  1.07555E+03  1.909E+00  9.636E+00  7.227E-02  1.955E+00
   1    3    6     3     2    1.7175E+00  2.4905E-01   1.4684E+00  0.000E+00  0.000E+00  0.000E+00  1.07264E+03  1.727E+00  8.909E+00  6.682E-02  1.864E+00
   1    3    7     3     3    1.4684E+00  1.9718E-01   1.2712E+00  0.000E+00  0.000E+00  0.000E+00  1.06987E+03  1.555E+00  8.218E+00  5.547E-02  1.777E+00
   1    4    8     3     4    1.2712E+00  2.2567E-01   1.0456E+00  0.000E+00  0.000E+00  0.000E+00  1.06682E+03  1.364E+00  7.455E+00  6.709E-02  1.682E+00
   1    5    8     3     5    1.0456E+00  1.5790E-01   8.8768E-01  0.000E+00  0.000E+00  0.000E+00  1.06362E+03  1.164E+00  6.655E+00  4.991E-02  1.582E+00
   1    6    8     3     6    8.8768E-01  5.5980E-02   8.3170E-01  0.000E+00  0.000E+00  0.000E+00  1.06158E+03  1.036E+00  6.145E+00  1.844E-02  1.518E+00
   1    5   10     4     1    1.0000E+01  9.0919E-02   9.9091E+00  0.000E+00  0.000E+00  0.000E+00  1.07836E+03  6.368E-01  1.000E+01  2.500E-02  1.212E+00
   1    5    9     4     2    9.9091E+00  1.8158E-01   9.7275E+00  0.000E+00  0.000E+00  0.000E+00  1.07154E+03  6.315E-01  1.000E+01  5.000E-02  1.211E+00
   1    6    8     4     3    9.7275E+00  1.2689E-01   9.6006E+00  0.000E+00  0.000E+00  0.000E+00  1.06381E+03  6.256E-01  1.000E+01  3.500E-02  1.209E+00
   1    6    8     5     1    1.0432E+01  2.2686E-01   1.0205E+01  0.000E+00  0.000E+00  0.000E+00  1.05868E+03  6.790E-01  1.542E+01  6.166E-02  1.226E+00
   1    7    7     5     2    1.0205E+01  2.7894E-01   9.9265E+00  0.000E+00  0.000E+00  0.000E+00  1.05417E+03  6.732E-01  1.519E+01  7.594E-02  1.224E+00
   1    8    7     5     3    9.9265E+00  1.9221E-01   9.7343E+00  0.000E+00  0.000E+00  0.000E+00  1.04992E+03  6.676E-01  1.497E+01  5.241E-02  1.223E+00
   1    8    6     5     4    9.7343E+00  1.3577E-01   9.5985E+00  0.000E+00  0.000E+00  0.000E+00  1.04691E+03  6.637E-01  1.482E+01  3.706E-02  1.221E+00
   1    9    6     6     1    2.4276E+01  2.5176E-01   2.4024E+01  0.000E+00  0.000E+00  0.000E+00  1.04392E+03  1.196E+00  1.200E+01  6.000E-02  1.399E+00
   1   10    7     6     2    2.4024E+01  2.5131E-01   2.3773E+01  0.000E+00  0.000E+00  0.000E+00  1.03937E+03  1.188E+00  1.200E+01  6.000E-02  1.396E+00
   1   11    7     6     3    2.3773E+01  2.5086E-01   2.3522E+01  0.000E+00  0.000E+00  0.000E+00  1.03482E+03  1.181E+00  1.200E+01  6.000E-02  1.394E+00
   1   12    7     6     4    2.3522E+01  2.5041E-01   2.3271E+01  0.000E+00  0.000E+00  0.000E+00  1.03026E+03  1.173E+00  1.200E+01  6.000E-02  1.391E+00
   1   13    7     6     5    2.3271E+01  6.3203E-03   2.3265E+01  0.000E+00  0.000E+00  0.000E+00  1.02708E+03  1.170E+00  1.200E+01  2.400E-02  8.778E-02
   1   14    9     7     1    1.5000E+02  1.3475E+00   1.4865E+02  0.000E+00  0.000E+00  0.000E+00  1.03987E+03  2.288E+00  5.529E+01  5.593E-01  8.031E-01
   1   13    8     7     2    1.4865E+02  1.9028E+00   1.4675E+02  0.000E+00  0.000E+00  0.000E+00  1.03478E+03  2.279E+00  5.526E+01  6.148E-01  1.032E+00
   1   13    7     7     3    1.4675E+02  1.6047E+00   1.4515E+02  0.000E+00  0.000E+00  0.000E+00  1.02969E+03  2.270E+00  5.521E+01  5.584E-01  9.579E-01
   1   13    6     8     1    1.6841E+02  1.0473E+00   1.6736E+02  0.000E+00  0.000E+00  0.000E+00  1.02481E+03  2.938E+00  4.261E+01  4.342E-01  8.041E-01
   1   13    5     8     2    1.6736E+02  2.9398E-01   1.6707E+02  0.000E+00  0.000E+00  0.000E+00  1.01856E+03  2.934E+00  4.254E+01  4.335E-01  2.260E-01
   1   13    4     8     3    1.6707E+02 -2.0393E+00   1.6911E+02  0.000E+00  0.000E+00  0.000E+00  1.01231E+03  2.940E+00  4.263E+01  4.344E+00 -1.565E-01
   1   13    3     8     4    1.6911E+02 -3.4547E+00   1.7256E+02  0.000E+00  0.000E+00  0.000E+00  1.00608E+03  2.958E+00  4.289E+01  4.370E+00 -2.635E-01
   1   13    2     8     5    1.7256E+02 -2.5318E+00   1.7509E+02  0.000E+00  0.000E+00  0.000E+00  9.99852E+02  2.977E+00  4.317E+01  4.399E+00 -1.919E-01
   1   13    1     8     6    1.7509E+02 -1.9719E+00   1.7707E+02  0.000E+00  0.000E+00  0.000E+00  9.94866E+02  2.991E+00  4.337E+01  2.652E+00 -2.479E-01





UNSATURATED ZONE PACKAGE VOLUMETRIC BUDGET FOR  TIME STEP    30 STRESS PERIOD   31
  ------------------------------------------------------------------------------



     CUMULATIVE VOLUMES      L**3       RATES FOR THIS TIME STEP      L**3/T
     ------------------                 ------------------------

           IN:                                      IN:
           ---                                      ---
        INFILTRATION =   963271351.2762          INFILTRATION =          23.3170

          OUT:                                     OUT:
          ----                                     ----
              UZF ET =   962438637.9917                UZF ET =          23.3175
        UZF RECHARGE =       73224.0000          UZF RECHARGE =       0.0000E+00

            IN - OUT =      759489.2846              IN - OUT =      -5.0783E-04

          STORAGE:                                 STORAGE:
          --------                                 --------
      STORAGE CHANGE =      759481.8067        STORAGE CHANGE =      -5.0946E-04

 PERCENT DISCREPANCY IS DIFFERENCE BETWEEN IN-OUT MINUS CHANGE IN STORAGE
 DIVIDED BY THE AVERAGE OF IN AND OUT TIMES 100

 PERCENT DISCREPANCY =           0.00     PERCENT DISCREPANCY =           0.00






1
  VOLUMETRIC BUDGET FOR AGRICULTURAL FIELDS AT  END OF TIME STEP   30, STRESS PERIOD  31
  ------------------------------------------------------------------------------

     CUMULATIVE VOLUMES      L**3       RATES FOR THIS TIME STEP      L**3/T
     ------------------                 ------------------------

           IN:                                      IN:
           ---                                      ---
               AG WELLS  =   896327168.0000                 AG WELLS  =          22.4695
      DIVERSION SEGMENTS =           0.0000        DIVERSION SEGMENTS =           0.0000
       IRRIGATION PONDS  =           0.0000         IRRIGATION PONDS  =           0.0000
           GW IRRIGATION =           0.0000             GW IRRIGATION =           0.0000
           SW IRRIGATION =           0.0000             SW IRRIGATION =           0.0000
        SYSTEM LOSSES GW =           0.0000          SYSTEM LOSSES GW =           0.0000
        SYSTEM LOSSES SW =           0.0000          SYSTEM LOSSES SW =           0.0000

                TOTAL IN =   896327168.0000                  TOTAL IN =          22.4695

          OUT:                                     OUT:
          ----                                     ----
               AG WELLS  =           0.0000                 AG WELLS  =           0.0000
      DIVERSION SEGMENTS =           0.0000        DIVERSION SEGMENTS =           0.0000
       IRRIGATION PONDS  =           0.0000         IRRIGATION PONDS  =           0.0000
           GW IRRIGATION =   896327168.0000             GW IRRIGATION =          22.4695
           SW IRRIGATION =           0.0000             SW IRRIGATION =           0.0000
        SYSTEM LOSSES GW =           0.0000          SYSTEM LOSSES GW =           0.0000
        SYSTEM LOSSES SW =           0.0000          SYSTEM LOSSES SW =           0.0000

               TOTAL OUT =   896327168.0000                 TOTAL OUT =          22.4695

                IN - OUT =           0.0000                  IN - OUT =           0.0000

     PERCENT DISCREPANCY =           0.00         PERCENT DISCREPANCY =           0.00



1
  VOLUMETRIC BUDGET FOR ENTIRE MODEL AT END OF TIME STEP   30, STRESS PERIOD  31
  ------------------------------------------------------------------------------

     CUMULATIVE VOLUMES      L**3       RATES FOR THIS TIME STEP      L**3/T
     ------------------                 ------------------------

           IN:                                      IN:
           ---                                      ---
             STORAGE     =  1225130880.0000               STORAGE     =          20.6155
       CONSTANT HEAD     =           0.0000         CONSTANT HEAD     =           0.0000
     HEAD DEP BOUNDS     =    22559918.0000       HEAD DEP BOUNDS     =           0.2866
      STREAM LEAKAGE     =   971204224.0000        STREAM LEAKAGE     =          11.9312
        UZF RECHARGE     =       73223.9531          UZF RECHARGE     =           0.0000
               GW ET     =           0.0000                 GW ET     =           0.0000
     SURFACE LEAKAGE     =           0.0000       SURFACE LEAKAGE     =           0.0000
           AG WELLS      =           0.0000             AG WELLS      =           0.0000

                TOTAL IN =  2218968064.0000                  TOTAL IN =          32.8332

          OUT:                                     OUT:
          ----                                     ----
             STORAGE     =   466613632.0000               STORAGE     =       7.6812E-02
       CONSTANT HEAD     =           0.0000         CONSTANT HEAD     =           0.0000
     HEAD DEP BOUNDS     =    23151166.0000       HEAD DEP BOUNDS     =           0.2892
      STREAM LEAKAGE     =   815277376.0000        STREAM LEAKAGE     =           9.9977
        UZF RECHARGE     =           0.0000          UZF RECHARGE     =           0.0000
               GW ET     =    17603406.0000                 GW ET     =           0.0000
     SURFACE LEAKAGE     =           0.0000       SURFACE LEAKAGE     =           0.0000
           AG WELLS      =   896327168.0000             AG WELLS      =          22.4695

               TOTAL OUT =  2218972672.0000                 TOTAL OUT =          32.8332

                IN - OUT =       -4608.0000                  IN - OUT =       1.5259E-05

     PERCENT DISCREPANCY =          -0.00         PERCENT DISCREPANCY =           0.00






         TIME SUMMARY AT END OF TIME STEP   30 IN STRESS PERIOD   31
                    SECONDS     MINUTES      HOURS       DAYS        YEARS
                    -----------------------------------------------------------
   TIME STEP LENGTH  87667.      1461.1      24.352      1.0147     2.77799E-03
 STRESS PERIOD TIME 2.63000E+06  43833.      730.56      30.440     8.33397E-02
         TOTAL TIME 7.89864E+07 1.31644E+06  21941.      914.20      2.5029    
1
1
                            STRESS PERIOD NO.   32, LENGTH =   2630000.    
                            -----------------------------------------------

                              NUMBER OF TIME STEPS =    30

                               MULTIPLIER FOR DELT =     1.000

                            INITIAL TIME STEP SIZE =   87666.66    

 REUSING NON-PARAMETER GHB CELLS FROM LAST STRESS PERIOD

      2 GHB CELLS

 REUSING STREAM SEGMENT DATA FROM LAST STRESS PERIOD



            AREAL INFILTRATION RATE
 READING ON UNIT   19 WITH FORMAT: (FREE)              

            1           2           3           4           5           6           7           8           9          10
 ........................................................................................................................
   1   1.0000E-10  2.0000E-10   0.000       0.000       0.000       0.000       0.000       0.000       0.000       0.000    
   2   2.0000E-10  1.0000E-10  2.0000E-10   0.000       0.000      8.0000E-10  8.0000E-10  5.0000E-10   0.000       0.000    
   3    0.000      5.0000E-10  1.0000E-10  1.0000E-10  8.0000E-10  8.0000E-10  5.0000E-10  5.0000E-10   0.000       0.000    
   4   8.0000E-10  5.0000E-10  1.0000E-10  1.0000E-10  1.0000E-10  1.0000E-10  1.0000E-10  1.0000E-10  2.0000E-10   0.000    
   5   8.0000E-10  5.0000E-10  1.0000E-10  1.0000E-10  1.0000E-10  1.0000E-10  1.0000E-10  1.0000E-10  1.0000E-10  1.0000E-10
   6   8.0000E-10  5.0000E-10  5.0000E-10  2.0000E-10  2.0000E-10  1.0000E-10  1.0000E-10  1.0000E-10  1.0000E-10  5.0000E-10
   7   8.0000E-10  5.0000E-10  5.0000E-10  2.0000E-10  2.0000E-10  1.0000E-10  1.0000E-10  2.0000E-10  2.0000E-10   0.000    
   8    0.000      5.0000E-10  5.0000E-10  2.0000E-10  2.0000E-10  1.0000E-10  1.0000E-10  2.0000E-10  5.0000E-10   0.000    
   9    0.000      5.0000E-10  5.0000E-10  2.0000E-10  2.0000E-10  1.0000E-10  1.0000E-10  2.0000E-10  5.0000E-10   0.000    
  10    0.000      5.0000E-10  5.0000E-10  2.0000E-10  2.0000E-10  1.0000E-10  1.0000E-10  2.0000E-10  5.0000E-10  8.0000E-10
  11    0.000      1.0000E-10  1.0000E-10  1.0000E-10  1.0000E-10  1.0000E-10  1.0000E-10  2.0000E-10  5.0000E-10   0.000    
  12   1.0000E-10  1.0000E-10  1.0000E-10  1.0000E-10  1.0000E-10  1.0000E-10  1.0000E-10  1.0000E-10  2.0000E-10   0.000    
  13   1.0000E-10  1.0000E-10  2.0000E-10  2.0000E-10  2.0000E-10  2.0000E-10  2.0000E-10  1.0000E-10  1.0000E-10   0.000    
  14    0.000      2.0000E-10  5.0000E-10  5.0000E-10  5.0000E-10  5.0000E-10  5.0000E-10  2.0000E-10  1.0000E-10   0.000    
  15    0.000       0.000      8.0000E-10  8.0000E-10  8.0000E-10  8.0000E-10   0.000       0.000       0.000       0.000    

                  ET RATE =  4.000000E-07

 USING ET EXTINCTION DEPTH FROM PREVIOUS STRESS PERIOD. CURRENT PERIOD IS:      32

 USING EXTINCTION WATER CONTENT FROM PREVIOUS STRESS PERIOD. CURRENT PERIOD IS:      32

 USING AIR ENTRY PRESSURE FROM PREVIOUS STRESS PERIOD. CURRENT PERIOD IS:      32

 USING ROOT PRESSURE HEAD FROM PREVIOUS STRESS PERIOD. CURRENT PERIOD IS:      32

 USING ROOT ACTIVITY FROM PREVIOUS STRESS PERIOD. CURRENT PERIOD IS:      32

 PROCESSING AG STRESS PERIOD DATA

 READING AG STRESS PERIOD DATA

 READING IRRIGATION WELL

 NO IRRPOND OR REUSING IRRPOND DATA FROM LAST STRESS PERIOD

 END PROCESSING AG STRESS PERIOD DATA OPTIONS
 
 SOLVING FOR HEAD 
                                                   Max.-Head-Change                         Max.-Flux-Residual
  Residual-Control   Outer-Iter.   Inner-Iter.     Column Row Layer    Maximum-Head-Change  Column Row Layer    Maximum-Flux-Residual          L2-NORM 
          0                 1           2             4    7     1      -0.1624492674E+00       4    7    1        -0.8494296041E+01      0.1989997480E+02
          0                 2           2             4    7     1       0.1580163592E-01       4    7    1         0.8494131292E+00      0.1989970327E+01
          0                 3           2             4    7     1      -0.1076035251E-02       4    7    1        -0.5945910060E-01      0.1392982374E+00
          0                 4           1             4    7     1       0.4281643846E-04       4    7    1         0.2431879890E-02      0.5697305363E-02

    ------------------------------------------------
       NWT REQUIRED            4 OUTER ITERATIONS 
       AND A TOTAL OF          7 INNER ITERATIONS.
    ------------------------------------------------

 NO OUTPUT CONTROL FOR STRESS PERIOD   32   TIME STEP    1
 
 SOLVING FOR HEAD 
                                                   Max.-Head-Change                         Max.-Flux-Residual
  Residual-Control   Outer-Iter.   Inner-Iter.     Column Row Layer    Maximum-Head-Change  Column Row Layer    Maximum-Flux-Residual          L2-NORM 
          0                 1           2             5    8     1       0.4413436860E-01       5    8    1         0.2396277644E+01      0.5434771998E+01
          0                 2           2             4    7     1      -0.1891603356E+00       5    8    1        -0.1023455137E+02      0.2498512055E+02
          0                 3           2             4    7     1       0.1288093016E-01       5    8    1         0.7163254383E+00      0.1748794636E+01
          0                 4           2             4    7     1      -0.5125451574E-03       5    8    1        -0.2928965746E-01      0.7151635110E-01
          0                 5           1             4    7     1       0.6319902578E-05       5    8    1         0.3706374250E-03      0.9068541489E-03

    ------------------------------------------------
       NWT REQUIRED            5 OUTER ITERATIONS 
       AND A TOTAL OF          9 INNER ITERATIONS.
    ------------------------------------------------

 NO OUTPUT CONTROL FOR STRESS PERIOD   32   TIME STEP    2
 
 SOLVING FOR HEAD 
                                                   Max.-Head-Change                         Max.-Flux-Residual
  Residual-Control   Outer-Iter.   Inner-Iter.     Column Row Layer    Maximum-Head-Change  Column Row Layer    Maximum-Flux-Residual          L2-NORM 
          0                 1           2             5    8     1       0.4766968017E-01       5    8    1         0.2590680135E+01      0.5836934363E+01
          0                 2           2             4    7     1      -0.1892701106E+00       5    8    1        -0.1025399140E+02      0.2501814142E+02
          0                 3           2             4    7     1       0.1288704185E-01       5    8    1         0.7176188276E+00      0.1750930545E+01
          0                 4           2             4    7     1      -0.5127883374E-03       5    8    1        -0.2934332877E-01      0.7160378454E-01
          0                 5           1             4    7     1       0.6322901215E-05       5    8    1         0.3713700196E-03      0.9077273847E-03

    ------------------------------------------------
       NWT REQUIRED            5 OUTER ITERATIONS 
       AND A TOTAL OF          9 INNER ITERATIONS.
    ------------------------------------------------

 NO OUTPUT CONTROL FOR STRESS PERIOD   32   TIME STEP    3
 
 SOLVING FOR HEAD 
                                                   Max.-Head-Change                         Max.-Flux-Residual
  Residual-Control   Outer-Iter.   Inner-Iter.     Column Row Layer    Maximum-Head-Change  Column Row Layer    Maximum-Flux-Residual          L2-NORM 
          0                 1           2             5    8     1       0.5101393921E-01       5    8    1         0.2774405463E+01      0.6225348671E+01
          0                 2           2             4    7     1      -0.1893836866E+00       5    8    1        -0.1027236369E+02      0.2505008130E+02
          0                 3           2             4    7     1       0.1289477778E-01       5    8    1         0.7189122592E+00      0.1753176315E+01
          0                 4           2             4    7     1      -0.5130961478E-03       5    8    1        -0.2939694639E-01      0.7169593895E-01
          0                 5           1             4    7     1       0.6326696389E-05       5    8    1         0.3720981481E-03      0.9087171156E-03

    ------------------------------------------------
       NWT REQUIRED            5 OUTER ITERATIONS 
       AND A TOTAL OF          9 INNER ITERATIONS.
    ------------------------------------------------

 NO OUTPUT CONTROL FOR STRESS PERIOD   32   TIME STEP    4
 
 SOLVING FOR HEAD 
                                                   Max.-Head-Change                         Max.-Flux-Residual
  Residual-Control   Outer-Iter.   Inner-Iter.     Column Row Layer    Maximum-Head-Change  Column Row Layer    Maximum-Flux-Residual          L2-NORM 
          0                 1           2             5    8     1       0.5418005878E-01       5    8    1         0.2948182950E+01      0.6599867796E+01
          0                 2           2             4    7     1      -0.1895006479E+00       5    8    1        -0.1028974119E+02      0.2508098684E+02
          0                 3           2             4    7     1       0.1290274408E-01       5    8    1         0.7201355422E+00      0.1755350440E+01
          0                 4           2             4    7     1      -0.5134131258E-03       5    8    1        -0.2944764474E-01      0.7178535179E-01
          0                 5           1             4    7     1       0.6330605483E-05       5    8    1         0.3727858893E-03      0.9097197948E-03

    ------------------------------------------------
       NWT REQUIRED            5 OUTER ITERATIONS 
       AND A TOTAL OF          9 INNER ITERATIONS.
    ------------------------------------------------

 NO OUTPUT CONTROL FOR STRESS PERIOD   32   TIME STEP    5
 
 SOLVING FOR HEAD 
                                                   Max.-Head-Change                         Max.-Flux-Residual
  Residual-Control   Outer-Iter.   Inner-Iter.     Column Row Layer    Maximum-Head-Change  Column Row Layer    Maximum-Flux-Residual          L2-NORM 
          0                 1           2             5    8     1       0.5718038243E-01       5    8    1         0.3112708036E+01      0.6960640498E+01
          0                 2           2             4    7     1      -0.1896206177E+00       5    8    1        -0.1030619343E+02      0.2511090308E+02
          0                 3           2             4    7     1       0.1291091510E-01       5    8    1         0.7212935829E+00      0.1757455876E+01
          0                 4           2             4    7     1      -0.5137382503E-03       5    8    1        -0.2949562824E-01      0.7187210955E-01
          0                 5           1             4    7     1       0.6334614046E-05       5    8    1         0.3734360500E-03      0.9107291030E-03

    ------------------------------------------------
       NWT REQUIRED            5 OUTER ITERATIONS 
       AND A TOTAL OF          9 INNER ITERATIONS.
    ------------------------------------------------

 NO OUTPUT CONTROL FOR STRESS PERIOD   32   TIME STEP    6
 
 SOLVING FOR HEAD 
                                                   Max.-Head-Change                         Max.-Flux-Residual
  Residual-Control   Outer-Iter.   Inner-Iter.     Column Row Layer    Maximum-Head-Change  Column Row Layer    Maximum-Flux-Residual          L2-NORM 
          0                 1           2             5    8     1       0.6002641078E-01       5    8    1         0.3268628549E+01      0.7308005524E+01
          0                 2           2             4    7     1      -0.1897432294E+00       5    8    1        -0.1032178521E+02      0.2513987331E+02
          0                 3           2             4    7     1       0.1291926587E-01       5    8    1         0.7223909515E+00      0.1759495487E+01
          0                 4           2             4    7     1      -0.5140705284E-03       5    8    1        -0.2954108732E-01      0.7195629971E-01
          0                 5           1             4    7     1       0.6338711101E-05       5    8    1         0.3740513534E-03      0.9117404314E-03

    ------------------------------------------------
       NWT REQUIRED            5 OUTER ITERATIONS 
       AND A TOTAL OF          9 INNER ITERATIONS.
    ------------------------------------------------

 NO OUTPUT CONTROL FOR STRESS PERIOD   32   TIME STEP    7
 
 SOLVING FOR HEAD 
                                                   Max.-Head-Change                         Max.-Flux-Residual
  Residual-Control   Outer-Iter.   Inner-Iter.     Column Row Layer    Maximum-Head-Change  Column Row Layer    Maximum-Flux-Residual          L2-NORM 
          0                 1           2             5    8     1       0.6272816546E-01       5    8    1         0.3416509489E+01      0.7642406725E+01
          0                 2           2             4    7     1      -0.1898681532E+00       5    8    1        -0.1033657303E+02      0.2516793858E+02
          0                 3           2             4    7     1       0.1292777396E-01       5    8    1         0.7234316373E+00      0.1761471575E+01
          0                 4           2             4    7     1      -0.5144090669E-03       5    8    1        -0.2958418843E-01      0.7203794878E-01
          0                 5           1             4    7     1       0.6342885334E-05       5    8    1         0.3746340419E-03      0.9127465283E-03

    ------------------------------------------------
       NWT REQUIRED            5 OUTER ITERATIONS 
       AND A TOTAL OF          9 INNER ITERATIONS.
    ------------------------------------------------

 NO OUTPUT CONTROL FOR STRESS PERIOD   32   TIME STEP    8
 
 SOLVING FOR HEAD 
                                                   Max.-Head-Change                         Max.-Flux-Residual
  Residual-Control   Outer-Iter.   Inner-Iter.     Column Row Layer    Maximum-Head-Change  Column Row Layer    Maximum-Flux-Residual          L2-NORM 
          0                 1           2             5    8     1       0.6529558093E-01       5    8    1         0.3556909601E+01      0.7964322437E+01
          0                 2           2             4    7     1      -0.1899950542E+00       5    8    1        -0.1035061276E+02      0.2519513628E+02
          0                 3           2             4    7     1       0.1293641656E-01       5    8    1         0.7244195802E+00      0.1763386915E+01
          0                 4           2             4    7     1      -0.5147529591E-03       5    8    1        -0.2962509554E-01      0.7211717424E-01
          0                 5           1             4    7     1       0.6347125991E-05       5    8    1         0.3751864388E-03      0.9137437057E-03

    ------------------------------------------------
       NWT REQUIRED            5 OUTER ITERATIONS 
       AND A TOTAL OF          9 INNER ITERATIONS.
    ------------------------------------------------

 NO OUTPUT CONTROL FOR STRESS PERIOD   32   TIME STEP    9
 
 SOLVING FOR HEAD 
                                                   Max.-Head-Change                         Max.-Flux-Residual
  Residual-Control   Outer-Iter.   Inner-Iter.     Column Row Layer    Maximum-Head-Change  Column Row Layer    Maximum-Flux-Residual          L2-NORM 
          0                 1           2             5    8     1       0.6773739827E-01       5    8    1         0.3690320511E+01      0.8274291321E+01
          0                 2           2             4    7     1      -0.1901236721E+00       5    8    1        -0.1036395357E+02      0.2522150504E+02
          0                 3           2             4    7     1       0.1294517596E-01       5    8    1         0.7253582499E+00      0.1765243729E+01
          0                 4           2             4    7     1      -0.5151014991E-03       5    8    1        -0.2966395332E-01      0.7219401041E-01
          0                 5           1             4    7     1       0.6351423664E-05       5    8    1         0.3757105280E-03      0.9147271598E-03

    ------------------------------------------------
       NWT REQUIRED            5 OUTER ITERATIONS 
       AND A TOTAL OF          9 INNER ITERATIONS.
    ------------------------------------------------

 NO OUTPUT CONTROL FOR STRESS PERIOD   32   TIME STEP   10
 
 SOLVING FOR HEAD 
                                                   Max.-Head-Change                         Max.-Flux-Residual
  Residual-Control   Outer-Iter.   Inner-Iter.     Column Row Layer    Maximum-Head-Change  Column Row Layer    Maximum-Flux-Residual          L2-NORM 
          0                 1           2             5    8     1       0.7006181360E-01       5    8    1         0.3817203269E+01      0.8572843958E+01
          0                 2           2             4    7     1      -0.1902537007E+00       5    8    1        -0.1037664156E+02      0.2524707701E+02
          0                 3           2             4    7     1       0.1295403131E-01       5    8    1         0.7262508962E+00      0.1767044546E+01
          0                 4           2             4    7     1      -0.5154538571E-03       5    8    1        -0.2970089689E-01      0.7226858000E-01
          0                 5           1             4    7     1       0.6355768272E-05       5    8    1         0.3762082192E-03      0.9156976235E-03

    ------------------------------------------------
       NWT REQUIRED            5 OUTER ITERATIONS 
       AND A TOTAL OF          9 INNER ITERATIONS.
    ------------------------------------------------

 NO OUTPUT CONTROL FOR STRESS PERIOD   32   TIME STEP   11
 
 SOLVING FOR HEAD 
                                                   Max.-Head-Change                         Max.-Flux-Residual
  Residual-Control   Outer-Iter.   Inner-Iter.     Column Row Layer    Maximum-Head-Change  Column Row Layer    Maximum-Flux-Residual          L2-NORM 
          0                 1           2             5    8     1       0.7227652569E-01       5    8    1         0.3937990488E+01      0.8860549774E+01
          0                 2           2             4    7     1      -0.1903848751E+00       5    8    1        -0.1038872000E+02      0.2527189111E+02
          0                 3           2             4    7     1       0.1296296459E-01       5    8    1         0.7271005797E+00      0.1768791550E+01
          0                 4           2             4    7     1      -0.5158093166E-03       5    8    1        -0.2973605458E-01      0.7234091052E-01
          0                 5           1             4    7     1       0.6360151188E-05       5    8    1         0.3766813479E-03      0.9166473349E-03

    ------------------------------------------------
       NWT REQUIRED            5 OUTER ITERATIONS 
       AND A TOTAL OF          9 INNER ITERATIONS.
    ------------------------------------------------

 NO OUTPUT CONTROL FOR STRESS PERIOD   32   TIME STEP   12
 
 SOLVING FOR HEAD 
                                                   Max.-Head-Change                         Max.-Flux-Residual
  Residual-Control   Outer-Iter.   Inner-Iter.     Column Row Layer    Maximum-Head-Change  Column Row Layer    Maximum-Flux-Residual          L2-NORM 
          0                 1           2             5    8     1       0.7438851769E-01       5    8    1         0.4053074017E+01      0.9137916925E+01
          0                 2           2             4    7     1      -0.1905169832E+00       5    8    1        -0.1040022807E+02      0.2529597451E+02
          0                 3           2             4    7     1       0.1297196134E-01       5    8    1         0.7279100564E+00      0.1770483935E+01
          0                 4           2             4    7     1      -0.5161673029E-03       5    8    1        -0.2976954043E-01      0.7241069579E-01
          0                 5           1             4    7     1       0.6364565581E-05       5    8    1         0.3771313864E-03      0.9175519325E-03

    ------------------------------------------------
       NWT REQUIRED            5 OUTER ITERATIONS 
       AND A TOTAL OF          9 INNER ITERATIONS.
    ------------------------------------------------

 NO OUTPUT CONTROL FOR STRESS PERIOD   32   TIME STEP   13
 
 SOLVING FOR HEAD 
                                                   Max.-Head-Change                         Max.-Flux-Residual
  Residual-Control   Outer-Iter.   Inner-Iter.     Column Row Layer    Maximum-Head-Change  Column Row Layer    Maximum-Flux-Residual          L2-NORM 
          0                 1           2             5    8     1       0.7640422891E-01       5    8    1         0.4162815480E+01      0.9405393346E+01
          0                 2           2             4    7     1      -0.1906497844E+00       5    8    1        -0.1041120194E+02      0.2531935740E+02
          0                 3           2             4    7     1       0.1298100520E-01       5    8    1         0.7286818803E+00      0.1772125843E+01
          0                 4           2             4    7     1      -0.5165271636E-03       5    8    1        -0.2980146104E-01      0.7247829377E-01
          0                 5           1             4    7     1       0.6369002713E-05       5    8    1         0.3775599043E-03      0.9184254424E-03

    ------------------------------------------------
       NWT REQUIRED            5 OUTER ITERATIONS 
       AND A TOTAL OF          9 INNER ITERATIONS.
    ------------------------------------------------

 NO OUTPUT CONTROL FOR STRESS PERIOD   32   TIME STEP   14
 
 SOLVING FOR HEAD 
                                                   Max.-Head-Change                         Max.-Flux-Residual
  Residual-Control   Outer-Iter.   Inner-Iter.     Column Row Layer    Maximum-Head-Change  Column Row Layer    Maximum-Flux-Residual          L2-NORM 
          0                 1           2             5    8     1       0.7832989895E-01       5    8    1         0.4267564523E+01      0.9663465508E+01
          0                 2           2             4    7     1      -0.1907830697E+00       5    8    1        -0.1042167656E+02      0.2534206945E+02
          0                 3           2             4    7     1       0.1299008194E-01       5    8    1         0.7294185166E+00      0.1773720630E+01
          0                 4           2             4    7     1      -0.5168883329E-03       5    8    1        -0.2983191900E-01      0.7254396236E-01
          0                 5           1             4    7     1       0.6373456087E-05       5    8    1         0.3779682841E-03      0.9192768251E-03

    ------------------------------------------------
       NWT REQUIRED            5 OUTER ITERATIONS 
       AND A TOTAL OF          9 INNER ITERATIONS.
    ------------------------------------------------

 NO OUTPUT CONTROL FOR STRESS PERIOD   32   TIME STEP   15
 
 SOLVING FOR HEAD 
                                                   Max.-Head-Change                         Max.-Flux-Residual
  Residual-Control   Outer-Iter.   Inner-Iter.     Column Row Layer    Maximum-Head-Change  Column Row Layer    Maximum-Flux-Residual          L2-NORM 
          0                 1           2             5    8     1       0.8017088065E-01       5    8    1         0.4367621236E+01      0.9912577878E+01
          0                 2           2             4    7     1      -0.1909166458E+00       5    8    1        -0.1043168196E+02      0.2536413710E+02
          0                 3           2             4    7     1       0.1299917840E-01       5    8    1         0.7301220830E+00      0.1775270137E+01
          0                 4           2             4    7     1      -0.5172502878E-03       5    8    1        -0.2986100260E-01      0.7260777359E-01
          0                 5           1             4    7     1       0.6377919094E-05       5    8    1         0.3783577697E-03      0.9201084914E-03

    ------------------------------------------------
       NWT REQUIRED            5 OUTER ITERATIONS 
       AND A TOTAL OF          9 INNER ITERATIONS.
    ------------------------------------------------

 NO OUTPUT CONTROL FOR STRESS PERIOD   32   TIME STEP   16
 
 SOLVING FOR HEAD 
                                                   Max.-Head-Change                         Max.-Flux-Residual
  Residual-Control   Outer-Iter.   Inner-Iter.     Column Row Layer    Maximum-Head-Change  Column Row Layer    Maximum-Flux-Residual          L2-NORM 
          0                 1           2             5    8     1       0.8193241381E-01       5    8    1         0.4463278791E+01      0.1015316970E+02
          0                 2           2             4    7     1      -0.1910503476E+00       5    8    1        -0.1044124745E+02      0.2538558700E+02
          0                 3           2             4    7     1       0.1300828334E-01       5    8    1         0.7307943499E+00      0.1776775741E+01
          0                 4           2             4    7     1      -0.5176125799E-03       5    8    1        -0.2988875644E-01      0.7266973397E-01
          0                 5           1             4    7     1       0.6382386357E-05       5    8    1         0.3787270189E-03      0.9209174822E-03

    ------------------------------------------------
       NWT REQUIRED            5 OUTER ITERATIONS 
       AND A TOTAL OF          9 INNER ITERATIONS.
    ------------------------------------------------

 NO OUTPUT CONTROL FOR STRESS PERIOD   32   TIME STEP   17
 
 SOLVING FOR HEAD 
                                                   Max.-Head-Change                         Max.-Flux-Residual
  Residual-Control   Outer-Iter.   Inner-Iter.     Column Row Layer    Maximum-Head-Change  Column Row Layer    Maximum-Flux-Residual          L2-NORM 
          0                 1           2             5    8     1       0.8361948510E-01       5    8    1         0.4554816681E+01      0.1038565281E+02
          0                 2           2             4    7     1      -0.1911839967E+00       5    8    1        -0.1045040097E+02      0.2540644346E+02
          0                 3           2             4    7     1       0.1301738463E-01       5    8    1         0.7314365140E+00      0.1778236846E+01
          0                 4           2             4    7     1      -0.5179747274E-03       5    8    1        -0.2991515680E-01      0.7272959246E-01
          0                 5           1             4    7     1       0.6386851605E-05       5    8    1         0.3790708251E-03      0.9216787644E-03

    ------------------------------------------------
       NWT REQUIRED            5 OUTER ITERATIONS 
       AND A TOTAL OF          9 INNER ITERATIONS.
    ------------------------------------------------

 NO OUTPUT CONTROL FOR STRESS PERIOD   32   TIME STEP   18
 
 SOLVING FOR HEAD 
                                                   Max.-Head-Change                         Max.-Flux-Residual
  Residual-Control   Outer-Iter.   Inner-Iter.     Column Row Layer    Maximum-Head-Change  Column Row Layer    Maximum-Flux-Residual          L2-NORM 
          0                 1           2             5    8     1       0.8523644426E-01       5    8    1         0.4642477852E+01      0.1061042182E+02
          0                 2           2             4    7     1      -0.1913174552E+00       5    8    1        -0.1045916682E+02      0.2542673053E+02
          0                 3           2             4    7     1       0.1302647288E-01       5    8    1         0.7320514421E+00      0.1779657944E+01
          0                 4           2             4    7     1      -0.5183363566E-03       5    8    1        -0.2994043351E-01      0.7278780288E-01
          0                 5           1             4    7     1       0.6391311027E-05       5    8    1         0.3793997346E-03      0.9224205757E-03

    ------------------------------------------------
       NWT REQUIRED            5 OUTER ITERATIONS 
       AND A TOTAL OF          9 INNER ITERATIONS.
    ------------------------------------------------

 NO OUTPUT CONTROL FOR STRESS PERIOD   32   TIME STEP   19
 
 SOLVING FOR HEAD 
                                                   Max.-Head-Change                         Max.-Flux-Residual
  Residual-Control   Outer-Iter.   Inner-Iter.     Column Row Layer    Maximum-Head-Change  Column Row Layer    Maximum-Flux-Residual          L2-NORM 
          0                 1           2             5    8     1       0.8678745975E-01       5    8    1         0.4726495648E+01      0.1082782938E+02
          0                 2           2             4    7     1      -0.1914505573E+00       5    8    1        -0.1046756835E+02      0.2544646888E+02
          0                 3           2             4    7     1       0.1303553679E-01       5    8    1         0.7326407745E+00      0.1781040579E+01
          0                 4           2             4    7     1      -0.5186970172E-03       5    8    1        -0.2996465437E-01      0.7284443683E-01
          0                 5           1             4    7     1       0.6395758016E-05       5    8    1         0.3797146521E-03      0.9231431946E-03

    ------------------------------------------------
       NWT REQUIRED            5 OUTER ITERATIONS 
       AND A TOTAL OF          9 INNER ITERATIONS.
    ------------------------------------------------

 NO OUTPUT CONTROL FOR STRESS PERIOD   32   TIME STEP   20
 
 SOLVING FOR HEAD 
                                                   Max.-Head-Change                         Max.-Flux-Residual
  Residual-Control   Outer-Iter.   Inner-Iter.     Column Row Layer    Maximum-Head-Change  Column Row Layer    Maximum-Flux-Residual          L2-NORM 
          0                 1           2             5    8     1       0.8827640395E-01       5    8    1         0.4807086210E+01      0.1103823827E+02
          0                 2           2             4    7     1      -0.1915832161E+00       5    8    1        -0.1047562715E+02      0.2546568166E+02
          0                 3           2             4    7     1       0.1304457045E-01       5    8    1         0.7332060309E+00      0.1782386371E+01
          0                 4           2             4    7     1      -0.5190564745E-03       5    8    1        -0.2998788213E-01      0.7289956030E-01
          0                 5           1             4    7     1       0.6400190107E-05       5    8    1         0.3800164141E-03      0.9238461494E-03

    ------------------------------------------------
       NWT REQUIRED            5 OUTER ITERATIONS 
       AND A TOTAL OF          9 INNER ITERATIONS.
    ------------------------------------------------

 NO OUTPUT CONTROL FOR STRESS PERIOD   32   TIME STEP   21
 
 SOLVING FOR HEAD 
                                                   Max.-Head-Change                         Max.-Flux-Residual
  Residual-Control   Outer-Iter.   Inner-Iter.     Column Row Layer    Maximum-Head-Change  Column Row Layer    Maximum-Flux-Residual          L2-NORM 
          0                 1           2             5    8     1       0.8970687122E-01       5    8    1         0.4884450324E+01      0.1124196542E+02
          0                 2           2             4    7     1      -0.1917152746E+00       5    8    1        -0.1048336331E+02      0.2548438717E+02
          0                 3           2             4    7     1       0.1305356319E-01       5    8    1         0.7337486225E+00      0.1783696603E+01
          0                 4           2             4    7     1      -0.5194143037E-03       5    8    1        -0.3001017514E-01      0.7295322606E-01
          0                 5           1             4    7     1       0.6404602260E-05       5    8    1         0.3803057934E-03      0.9245305831E-03

    ------------------------------------------------
       NWT REQUIRED            5 OUTER ITERATIONS 
       AND A TOTAL OF          9 INNER ITERATIONS.
    ------------------------------------------------

 NO OUTPUT CONTROL FOR STRESS PERIOD   32   TIME STEP   22
 
 SOLVING FOR HEAD 
                                                   Max.-Head-Change                         Max.-Flux-Residual
  Residual-Control   Outer-Iter.   Inner-Iter.     Column Row Layer    Maximum-Head-Change  Column Row Layer    Maximum-Flux-Residual          L2-NORM 
          0                 1           2             5    8     1       0.9108220131E-01       5    8    1         0.4958774364E+01      0.1143932849E+02
          0                 2           2             4    7     1      -0.1918466406E+00       5    8    1        -0.1049079547E+02      0.2550260567E+02
          0                 3           2             4    7     1       0.1306250873E-01       5    8    1         0.7342698597E+00      0.1784972694E+01
          0                 4           2             4    7     1      -0.5197702550E-03       5    8    1        -0.3003158755E-01      0.7300549138E-01
          0                 5           1             4    7     1       0.6408991113E-05       5    8    1         0.3805835188E-03      0.9251977537E-03

    ------------------------------------------------
       NWT REQUIRED            5 OUTER ITERATIONS 
       AND A TOTAL OF          9 INNER ITERATIONS.
    ------------------------------------------------

 NO OUTPUT CONTROL FOR STRESS PERIOD   32   TIME STEP   23
 
 SOLVING FOR HEAD 
                                                   Max.-Head-Change                         Max.-Flux-Residual
  Residual-Control   Outer-Iter.   Inner-Iter.     Column Row Layer    Maximum-Head-Change  Column Row Layer    Maximum-Flux-Residual          L2-NORM 
          0                 1           2             5    8     1       0.9240564019E-01       5    8    1         0.5030239296E+01      0.1163062436E+02
          0                 2           2             4    7     1      -0.1919772310E+00       5    8    1        -0.1049794173E+02      0.2552035579E+02
          0                 3           2             4    7     1       0.1307140139E-01       5    8    1         0.7347710144E+00      0.1786215952E+01
          0                 4           2             4    7     1      -0.5201241025E-03       5    8    1        -0.3005217185E-01      0.7305641023E-01
          0                 5           1             4    7     1       0.6413354315E-05       5    8    1         0.3808503136E-03      0.9258497341E-03

    ------------------------------------------------
       NWT REQUIRED            5 OUTER ITERATIONS 
       AND A TOTAL OF          9 INNER ITERATIONS.
    ------------------------------------------------

 NO OUTPUT CONTROL FOR STRESS PERIOD   32   TIME STEP   24
 
 SOLVING FOR HEAD 
                                                   Max.-Head-Change                         Max.-Flux-Residual
  Residual-Control   Outer-Iter.   Inner-Iter.     Column Row Layer    Maximum-Head-Change  Column Row Layer    Maximum-Flux-Residual          L2-NORM 
          0                 1           2             5    8     1       0.9368006882E-01       5    8    1         0.5099005630E+01      0.1181612587E+02
          0                 2           2             4    7     1      -0.1921069319E+00       5    8    1        -0.1050481813E+02      0.2553765473E+02
          0                 3           2             4    7     1       0.1308023346E-01       5    8    1         0.7352528824E+00      0.1787427307E+01
          0                 4           2             4    7     1      -0.5204755390E-03       5    8    1        -0.3007192819E-01      0.7310599365E-01
          0                 5           1             4    7     1       0.6417687721E-05       5    8    1         0.3811039492E-03      0.9264786423E-03

    ------------------------------------------------
       NWT REQUIRED            5 OUTER ITERATIONS 
       AND A TOTAL OF          9 INNER ITERATIONS.
    ------------------------------------------------

 NO OUTPUT CONTROL FOR STRESS PERIOD   32   TIME STEP   25
 
 SOLVING FOR HEAD 
                                                   Max.-Head-Change                         Max.-Flux-Residual
  Residual-Control   Outer-Iter.   Inner-Iter.     Column Row Layer    Maximum-Head-Change  Column Row Layer    Maximum-Flux-Residual          L2-NORM 
          0                 1           2             5    8     1       0.9490816620E-01       5    8    1         0.5165222748E+01      0.1199609468E+02
          0                 2           2             4    7     1      -0.1922356913E+00       5    8    1        -0.1051143961E+02      0.2555451912E+02
          0                 3           2             4    7     1       0.1308900136E-01       5    8    1         0.7357164046E+00      0.1788607834E+01
          0                 4           2             4    7     1      -0.5208244232E-03       5    8    1        -0.3009088620E-01      0.7315427863E-01
          0                 5           1             4    7     1       0.6421989651E-05       5    8    1         0.3813442045E-03      0.9270912160E-03

    ------------------------------------------------
       NWT REQUIRED            5 OUTER ITERATIONS 
       AND A TOTAL OF          9 INNER ITERATIONS.
    ------------------------------------------------

 NO OUTPUT CONTROL FOR STRESS PERIOD   32   TIME STEP   26
 
 SOLVING FOR HEAD 
                                                   Max.-Head-Change                         Max.-Flux-Residual
  Residual-Control   Outer-Iter.   Inner-Iter.     Column Row Layer    Maximum-Head-Change  Column Row Layer    Maximum-Flux-Residual          L2-NORM 
          0                 1           2             5    8     1       0.9609243025E-01       5    8    1         0.5229029565E+01      0.1217076778E+02
          0                 2           2             4    7     1      -0.1923633981E+00       5    8    1        -0.1051782007E+02      0.2557096466E+02
          0                 3           2             4    7     1       0.1309769756E-01       5    8    1         0.7361630563E+00      0.1789759039E+01
          0                 4           2             4    7     1      -0.5211704536E-03       5    8    1        -0.3010915419E-01      0.7320136147E-01
          0                 5           1             4    7     1       0.6426256296E-05       5    8    1         0.3815757182E-03      0.9276867144E-03

    ------------------------------------------------
       NWT REQUIRED            5 OUTER ITERATIONS 
       AND A TOTAL OF          9 INNER ITERATIONS.
    ------------------------------------------------

 NO OUTPUT CONTROL FOR STRESS PERIOD   32   TIME STEP   27
 
 SOLVING FOR HEAD 
                                                   Max.-Head-Change                         Max.-Flux-Residual
  Residual-Control   Outer-Iter.   Inner-Iter.     Column Row Layer    Maximum-Head-Change  Column Row Layer    Maximum-Flux-Residual          L2-NORM 
          0                 1           2             5    8     1       0.9723539367E-01       5    8    1         0.5290558145E+01      0.1234037333E+02
          0                 2           2             4    7     1      -0.1924900295E+00       5    8    1        -0.1052397271E+02      0.2558700512E+02
          0                 3           2             4    7     1       0.1310632049E-01       5    8    1         0.7365937584E+00      0.1790881886E+01
          0                 4           2             4    7     1      -0.5215135692E-03       5    8    1        -0.3012676985E-01      0.7324728591E-01
          0                 5           1             4    7     1       0.6430487096E-05       5    8    1         0.3817989536E-03      0.9282690917E-03

    ------------------------------------------------
       NWT REQUIRED            5 OUTER ITERATIONS 
       AND A TOTAL OF          9 INNER ITERATIONS.
    ------------------------------------------------

 NO OUTPUT CONTROL FOR STRESS PERIOD   32   TIME STEP   28
 
 SOLVING FOR HEAD 
                                                   Max.-Head-Change                         Max.-Flux-Residual
  Residual-Control   Outer-Iter.   Inner-Iter.     Column Row Layer    Maximum-Head-Change  Column Row Layer    Maximum-Flux-Residual          L2-NORM 
          0                 1           2             5    8     1       0.9833937321E-01       5    8    1         0.5349948573E+01      0.1250511639E+02
          0                 2           2             4    7     1      -0.1926154886E+00       5    8    1        -0.1052991155E+02      0.2560265941E+02
          0                 3           2             4    7     1       0.1311486356E-01       5    8    1         0.7370094987E+00      0.1791977701E+01
          0                 4           2             4    7     1      -0.5218535066E-03       5    8    1        -0.3014377354E-01      0.7329210473E-01
          0                 5           1             4    7     1       0.6434678691E-05       5    8    1         0.3820144634E-03      0.9288377730E-03

    ------------------------------------------------
       NWT REQUIRED            5 OUTER ITERATIONS 
       AND A TOTAL OF          9 INNER ITERATIONS.
    ------------------------------------------------

 NO OUTPUT CONTROL FOR STRESS PERIOD   32   TIME STEP   29
 
 SOLVING FOR HEAD 
                                                   Max.-Head-Change                         Max.-Flux-Residual
  Residual-Control   Outer-Iter.   Inner-Iter.     Column Row Layer    Maximum-Head-Change  Column Row Layer    Maximum-Flux-Residual          L2-NORM 
          0                 1           2             5    8     1       0.9940669731E-01       5    8    1         0.5407311573E+01      0.1266519789E+02
          0                 2           2             4    7     1      -0.1927397527E+00       5    8    1        -0.1053564765E+02      0.2561793396E+02
          0                 3           2             4    7     1       0.1312332523E-01       5    8    1         0.7374110391E+00      0.1793046929E+01
          0                 4           2             4    7     1      -0.5221902057E-03       5    8    1        -0.3016019652E-01      0.7333583596E-01
          0                 5           1             4    7     1       0.6438830409E-05       5    8    1         0.3822225763E-03      0.9293909683E-03

    ------------------------------------------------
       NWT REQUIRED            5 OUTER ITERATIONS 
       AND A TOTAL OF          9 INNER ITERATIONS.
    ------------------------------------------------

 NO OUTPUT CONTROL FOR STRESS PERIOD   32   TIME STEP   30



 STREAM LISTING     PERIOD     32   STEP       30

 LAYER ROW COL. STREAM  RCH.  FLOW INTO     FLOW TO   FLOW OUT OF   OVRLND.     DIRECT     STREAM       STREAM     STREAM     STREAM   STREAMBED  STREAMBED
                SEG.NO.  NO.  STRM. RCH.    AQUIFER    STRM. RCH.    RUNOFF     PRECIP       ET          HEAD       DEPTH      WIDTH   CONDCTNC.   GRADIENT

   1    1    1     1     1    1.9000E+01  2.1427E-01   1.8786E+01  0.000E+00  0.000E+00  0.000E+00  1.09413E+03  1.082E+00  1.166E+01  5.249E-02  1.361E+00
   1    2    2     1     2    1.8786E+01  3.3054E-01   1.8455E+01  0.000E+00  0.000E+00  0.000E+00  1.08914E+03  1.077E+00  1.158E+01  8.107E-02  1.359E+00
   1    3    3     1     3    1.8455E+01  2.8064E-01   1.8175E+01  0.000E+00  0.000E+00  0.000E+00  1.08349E+03  1.072E+00  1.149E+01  6.892E-02  1.357E+00
   1    3    4     1     4    1.8175E+01  2.5740E-01   1.7917E+01  0.000E+00  0.000E+00  0.000E+00  1.07848E+03  1.068E+00  1.140E+01  6.328E-02  1.356E+00
   1    4    5     2     1    1.5917E+01  3.0542E-01   1.5612E+01  0.000E+00  0.000E+00  0.000E+00  1.07285E+03  9.157E-01  1.200E+01  7.800E-02  1.305E+00
   1    5    6     2     2    1.5612E+01  2.3438E-01   1.5377E+01  0.000E+00  0.000E+00  0.000E+00  1.06742E+03  9.063E-01  1.200E+01  6.000E-02  1.302E+00
   1    6    6     2     3    1.5377E+01  2.3388E-01   1.5143E+01  0.000E+00  0.000E+00  0.000E+00  1.06269E+03  8.980E-01  1.200E+01  6.000E-02  1.299E+00
   1    7    6     2     4    1.5143E+01  2.3338E-01   1.4910E+01  0.000E+00  0.000E+00  0.000E+00  1.05797E+03  8.897E-01  1.200E+01  6.000E-02  1.297E+00
   1    8    6     2     5    1.4910E+01  2.3289E-01   1.4677E+01  0.000E+00  0.000E+00  0.000E+00  1.05324E+03  8.814E-01  1.200E+01  6.000E-02  1.294E+00
   1    3    5     3     1    2.0000E+00  2.8252E-01   1.7175E+00  0.000E+00  0.000E+00  0.000E+00  1.07555E+03  1.909E+00  9.636E+00  7.227E-02  1.955E+00
   1    3    6     3     2    1.7175E+00  2.4905E-01   1.4684E+00  0.000E+00  0.000E+00  0.000E+00  1.07264E+03  1.727E+00  8.909E+00  6.682E-02  1.864E+00
   1    3    7     3     3    1.4684E+00  1.9718E-01   1.2712E+00  0.000E+00  0.000E+00  0.000E+00  1.06987E+03  1.555E+00  8.218E+00  5.547E-02  1.777E+00
   1    4    8     3     4    1.2712E+00  2.2567E-01   1.0456E+00  0.000E+00  0.000E+00  0.000E+00  1.06682E+03  1.364E+00  7.455E+00  6.709E-02  1.682E+00
   1    5    8     3     5    1.0456E+00  1.5790E-01   8.8768E-01  0.000E+00  0.000E+00  0.000E+00  1.06362E+03  1.164E+00  6.655E+00  4.991E-02  1.582E+00
   1    6    8     3     6    8.8768E-01  5.5980E-02   8.3170E-01  0.000E+00  0.000E+00  0.000E+00  1.06158E+03  1.036E+00  6.145E+00  1.844E-02  1.518E+00
   1    5   10     4     1    1.0000E+01  9.0919E-02   9.9091E+00  0.000E+00  0.000E+00  0.000E+00  1.07836E+03  6.368E-01  1.000E+01  2.500E-02  1.212E+00
   1    5    9     4     2    9.9091E+00  1.8158E-01   9.7275E+00  0.000E+00  0.000E+00  0.000E+00  1.07154E+03  6.315E-01  1.000E+01  5.000E-02  1.211E+00
   1    6    8     4     3    9.7275E+00  1.2689E-01   9.6006E+00  0.000E+00  0.000E+00  0.000E+00  1.06381E+03  6.256E-01  1.000E+01  3.500E-02  1.209E+00
   1    6    8     5     1    1.0432E+01  2.2686E-01   1.0205E+01  0.000E+00  0.000E+00  0.000E+00  1.05868E+03  6.790E-01  1.542E+01  6.166E-02  1.226E+00
   1    7    7     5     2    1.0205E+01  2.7894E-01   9.9265E+00  0.000E+00  0.000E+00  0.000E+00  1.05417E+03  6.732E-01  1.519E+01  7.594E-02  1.224E+00
   1    8    7     5     3    9.9265E+00  1.9221E-01   9.7343E+00  0.000E+00  0.000E+00  0.000E+00  1.04992E+03  6.676E-01  1.497E+01  5.241E-02  1.223E+00
   1    8    6     5     4    9.7343E+00  1.3577E-01   9.5985E+00  0.000E+00  0.000E+00  0.000E+00  1.04691E+03  6.637E-01  1.482E+01  3.706E-02  1.221E+00
   1    9    6     6     1    2.4276E+01  2.5176E-01   2.4024E+01  0.000E+00  0.000E+00  0.000E+00  1.04392E+03  1.196E+00  1.200E+01  6.000E-02  1.399E+00
   1   10    7     6     2    2.4024E+01  2.5131E-01   2.3773E+01  0.000E+00  0.000E+00  0.000E+00  1.03937E+03  1.188E+00  1.200E+01  6.000E-02  1.396E+00
   1   11    7     6     3    2.3773E+01  2.5086E-01   2.3522E+01  0.000E+00  0.000E+00  0.000E+00  1.03482E+03  1.181E+00  1.200E+01  6.000E-02  1.394E+00
   1   12    7     6     4    2.3522E+01  2.5041E-01   2.3271E+01  0.000E+00  0.000E+00  0.000E+00  1.03026E+03  1.173E+00  1.200E+01  6.000E-02  1.391E+00
   1   13    7     6     5    2.3271E+01  6.6547E-03   2.3265E+01  0.000E+00  0.000E+00  0.000E+00  1.02708E+03  1.170E+00  1.200E+01  2.400E-02  9.243E-02
   1   14    9     7     1    1.5000E+02  1.3495E+00   1.4865E+02  0.000E+00  0.000E+00  0.000E+00  1.03987E+03  2.288E+00  5.529E+01  5.593E-01  8.043E-01
   1   13    8     7     2    1.4865E+02  1.9089E+00   1.4674E+02  0.000E+00  0.000E+00  0.000E+00  1.03478E+03  2.279E+00  5.526E+01  6.148E-01  1.035E+00
   1   13    7     7     3    1.4674E+02  1.6125E+00   1.4513E+02  0.000E+00  0.000E+00  0.000E+00  1.02969E+03  2.270E+00  5.521E+01  5.584E-01  9.625E-01
   1   13    6     8     1    1.6839E+02  1.0531E+00   1.6734E+02  0.000E+00  0.000E+00  0.000E+00  1.02481E+03  2.938E+00  4.260E+01  4.342E-01  8.086E-01
   1   13    5     8     2    1.6734E+02  2.9807E-01   1.6704E+02  0.000E+00  0.000E+00  0.000E+00  1.01856E+03  2.934E+00  4.254E+01  4.335E-01  2.292E-01
   1   13    4     8     3    1.6704E+02 -2.0280E+00   1.6907E+02  0.000E+00  0.000E+00  0.000E+00  1.01231E+03  2.940E+00  4.262E+01  4.343E+00 -1.556E-01
   1   13    3     8     4    1.6907E+02 -3.4478E+00   1.7252E+02  0.000E+00  0.000E+00  0.000E+00  1.00608E+03  2.957E+00  4.288E+01  4.370E+00 -2.630E-01
   1   13    2     8     5    1.7252E+02 -2.5287E+00   1.7505E+02  0.000E+00  0.000E+00  0.000E+00  9.99852E+02  2.977E+00  4.316E+01  4.398E+00 -1.916E-01
   1   13    1     8     6    1.7505E+02 -1.9707E+00   1.7702E+02  0.000E+00  0.000E+00  0.000E+00  9.94866E+02  2.991E+00  4.337E+01  2.652E+00 -2.477E-01





UNSATURATED ZONE PACKAGE VOLUMETRIC BUDGET FOR  TIME STEP    30 STRESS PERIOD   32
  ------------------------------------------------------------------------------



     CUMULATIVE VOLUMES      L**3       RATES FOR THIS TIME STEP      L**3/T
     ------------------                 ------------------------

           IN:                                      IN:
           ---                                      ---
        INFILTRATION =  1123223959.5276          INFILTRATION =          60.8175

          OUT:                                     OUT:
          ----                                     ----
              UZF ET =  1122388655.3681                UZF ET =          60.8175
        UZF RECHARGE =       73224.0000          UZF RECHARGE =       0.0000E+00

            IN - OUT =      762080.1596              IN - OUT =       0.0000E+00

          STORAGE:                                 STORAGE:
          --------                                 --------
      STORAGE CHANGE =      762072.2364        STORAGE CHANGE =      -2.4484E-15

 PERCENT DISCREPANCY IS DIFFERENCE BETWEEN IN-OUT MINUS CHANGE IN STORAGE
 DIVIDED BY THE AVERAGE OF IN AND OUT TIMES 100

 PERCENT DISCREPANCY =           0.00     PERCENT DISCREPANCY =           0.00






1
  VOLUMETRIC BUDGET FOR AGRICULTURAL FIELDS AT  END OF TIME STEP   30, STRESS PERIOD  32
  ------------------------------------------------------------------------------

     CUMULATIVE VOLUMES      L**3       RATES FOR THIS TIME STEP      L**3/T
     ------------------                 ------------------------

           IN:                                      IN:
           ---                                      ---
               AG WELLS  =  1054050176.0000                 AG WELLS  =          59.9700
      DIVERSION SEGMENTS =           0.0000        DIVERSION SEGMENTS =           0.0000
       IRRIGATION PONDS  =           0.0000         IRRIGATION PONDS  =           0.0000
           GW IRRIGATION =           0.0000             GW IRRIGATION =           0.0000
           SW IRRIGATION =           0.0000             SW IRRIGATION =           0.0000
        SYSTEM LOSSES GW =           0.0000          SYSTEM LOSSES GW =           0.0000
        SYSTEM LOSSES SW =           0.0000          SYSTEM LOSSES SW =           0.0000

                TOTAL IN =  1054050176.0000                  TOTAL IN =          59.9700

          OUT:                                     OUT:
          ----                                     ----
               AG WELLS  =           0.0000                 AG WELLS  =           0.0000
      DIVERSION SEGMENTS =           0.0000        DIVERSION SEGMENTS =           0.0000
       IRRIGATION PONDS  =           0.0000         IRRIGATION PONDS  =           0.0000
           GW IRRIGATION =  1054050176.0000             GW IRRIGATION =          59.9700
           SW IRRIGATION =           0.0000             SW IRRIGATION =           0.0000
        SYSTEM LOSSES GW =           0.0000          SYSTEM LOSSES GW =           0.0000
        SYSTEM LOSSES SW =           0.0000          SYSTEM LOSSES SW =           0.0000

               TOTAL OUT =  1054050176.0000                 TOTAL OUT =          59.9700

                IN - OUT =           0.0000                  IN - OUT =           0.0000

     PERCENT DISCREPANCY =           0.00         PERCENT DISCREPANCY =           0.00



1
  VOLUMETRIC BUDGET FOR ENTIRE MODEL AT END OF TIME STEP   30, STRESS PERIOD  32
  ------------------------------------------------------------------------------

     CUMULATIVE VOLUMES      L**3       RATES FOR THIS TIME STEP      L**3/T
     ------------------                 ------------------------

           IN:                                      IN:
           ---                                      ---
             STORAGE     =  1377902464.0000               STORAGE     =          58.0609
       CONSTANT HEAD     =           0.0000         CONSTANT HEAD     =           0.0000
     HEAD DEP BOUNDS     =    23313744.0000       HEAD DEP BOUNDS     =           0.2867
      STREAM LEAKAGE     =  1002619584.0000        STREAM LEAKAGE     =          11.9573
        UZF RECHARGE     =       73223.9531          UZF RECHARGE     =           0.0000
               GW ET     =           0.0000                 GW ET     =           0.0000
     SURFACE LEAKAGE     =           0.0000       SURFACE LEAKAGE     =           0.0000
           AG WELLS      =           0.0000             AG WELLS      =           0.0000

                TOTAL IN =  2403909120.0000                  TOTAL IN =          70.3049

          OUT:                                     OUT:
          ----                                     ----
             STORAGE     =   466807008.0000               STORAGE     =       7.0499E-02
       CONSTANT HEAD     =           0.0000         CONSTANT HEAD     =           0.0000
     HEAD DEP BOUNDS     =    23911666.0000       HEAD DEP BOUNDS     =           0.2892
      STREAM LEAKAGE     =   841540416.0000        STREAM LEAKAGE     =           9.9753
        UZF RECHARGE     =           0.0000          UZF RECHARGE     =           0.0000
               GW ET     =    17603406.0000                 GW ET     =           0.0000
     SURFACE LEAKAGE     =           0.0000       SURFACE LEAKAGE     =           0.0000
           AG WELLS      =  1054050176.0000             AG WELLS      =          59.9700

               TOTAL OUT =  2403912704.0000                 TOTAL OUT =          70.3049

                IN - OUT =       -3584.0000                  IN - OUT =       3.0518E-05

     PERCENT DISCREPANCY =          -0.00         PERCENT DISCREPANCY =           0.00






         TIME SUMMARY AT END OF TIME STEP   30 IN STRESS PERIOD   32
                    SECONDS     MINUTES      HOURS       DAYS        YEARS
                    -----------------------------------------------------------
   TIME STEP LENGTH  87667.      1461.1      24.352      1.0147     2.77799E-03
 STRESS PERIOD TIME 2.63000E+06  43833.      730.56      30.440     8.33397E-02
         TOTAL TIME 8.16164E+07 1.36027E+06  22671.      944.63      2.5863    
1
1
                            STRESS PERIOD NO.   33, LENGTH =   2630000.    
                            -----------------------------------------------

                              NUMBER OF TIME STEPS =    30

                               MULTIPLIER FOR DELT =     1.000

                            INITIAL TIME STEP SIZE =   87666.66    

 REUSING NON-PARAMETER GHB CELLS FROM LAST STRESS PERIOD

      2 GHB CELLS

 REUSING STREAM SEGMENT DATA FROM LAST STRESS PERIOD



            AREAL INFILTRATION RATE
 READING ON UNIT   19 WITH FORMAT: (FREE)              

            1           2           3           4           5           6           7           8           9          10
 ........................................................................................................................
   1   1.0000E-10  2.0000E-10   0.000       0.000       0.000       0.000       0.000       0.000       0.000       0.000    
   2   2.0000E-10  1.0000E-10  2.0000E-10   0.000       0.000      8.0000E-10  8.0000E-10  5.0000E-10   0.000       0.000    
   3    0.000      5.0000E-10  1.0000E-10  1.0000E-10  8.0000E-10  8.0000E-10  5.0000E-10  5.0000E-10   0.000       0.000    
   4   8.0000E-10  5.0000E-10  1.0000E-10  1.0000E-10  1.0000E-10  1.0000E-10  1.0000E-10  1.0000E-10  2.0000E-10   0.000    
   5   8.0000E-10  5.0000E-10  1.0000E-10  1.0000E-10  1.0000E-10  1.0000E-10  1.0000E-10  1.0000E-10  1.0000E-10  1.0000E-10
   6   8.0000E-10  5.0000E-10  5.0000E-10  2.0000E-10  2.0000E-10  1.0000E-10  1.0000E-10  1.0000E-10  1.0000E-10  5.0000E-10
   7   8.0000E-10  5.0000E-10  5.0000E-10  2.0000E-10  2.0000E-10  1.0000E-10  1.0000E-10  2.0000E-10  2.0000E-10   0.000    
   8    0.000      5.0000E-10  5.0000E-10  2.0000E-10  2.0000E-10  1.0000E-10  1.0000E-10  2.0000E-10  5.0000E-10   0.000    
   9    0.000      5.0000E-10  5.0000E-10  2.0000E-10  2.0000E-10  1.0000E-10  1.0000E-10  2.0000E-10  5.0000E-10   0.000    
  10    0.000      5.0000E-10  5.0000E-10  2.0000E-10  2.0000E-10  1.0000E-10  1.0000E-10  2.0000E-10  5.0000E-10  8.0000E-10
  11    0.000      1.0000E-10  1.0000E-10  1.0000E-10  1.0000E-10  1.0000E-10  1.0000E-10  2.0000E-10  5.0000E-10   0.000    
  12   1.0000E-10  1.0000E-10  1.0000E-10  1.0000E-10  1.0000E-10  1.0000E-10  1.0000E-10  1.0000E-10  2.0000E-10   0.000    
  13   1.0000E-10  1.0000E-10  2.0000E-10  2.0000E-10  2.0000E-10  2.0000E-10  2.0000E-10  1.0000E-10  1.0000E-10   0.000    
  14    0.000      2.0000E-10  5.0000E-10  5.0000E-10  5.0000E-10  5.0000E-10  5.0000E-10  2.0000E-10  1.0000E-10   0.000    
  15    0.000       0.000      8.0000E-10  8.0000E-10  8.0000E-10  8.0000E-10   0.000       0.000       0.000       0.000    

                  ET RATE =  3.250000E-07

 USING ET EXTINCTION DEPTH FROM PREVIOUS STRESS PERIOD. CURRENT PERIOD IS:      33

 USING EXTINCTION WATER CONTENT FROM PREVIOUS STRESS PERIOD. CURRENT PERIOD IS:      33

 USING AIR ENTRY PRESSURE FROM PREVIOUS STRESS PERIOD. CURRENT PERIOD IS:      33

 USING ROOT PRESSURE HEAD FROM PREVIOUS STRESS PERIOD. CURRENT PERIOD IS:      33

 USING ROOT ACTIVITY FROM PREVIOUS STRESS PERIOD. CURRENT PERIOD IS:      33

 PROCESSING AG STRESS PERIOD DATA

 READING AG STRESS PERIOD DATA

 READING IRRIGATION WELL

 NO IRRPOND OR REUSING IRRPOND DATA FROM LAST STRESS PERIOD

 END PROCESSING AG STRESS PERIOD DATA OPTIONS
 
 SOLVING FOR HEAD 
                                                   Max.-Head-Change                         Max.-Flux-Residual
  Residual-Control   Outer-Iter.   Inner-Iter.     Column Row Layer    Maximum-Head-Change  Column Row Layer    Maximum-Flux-Residual          L2-NORM 
          0                 1           2             4    7     1      -0.8755290870E-01       4    7    1        -0.4605593494E+01      0.1025482522E+02
          0                 2           2             4    7     1       0.8516332970E-02       4    7    1         0.4605473504E+00      0.1025474133E+01
          0                 3           2             4    7     1      -0.5799324397E-03       4    7    1        -0.3223844198E-01      0.7178329310E-01
          0                 4           1             4    7     1       0.2307604693E-04       4    7    1         0.1318553584E-02      0.2935939681E-02

    ------------------------------------------------
       NWT REQUIRED            4 OUTER ITERATIONS 
       AND A TOTAL OF          7 INNER ITERATIONS.
    ------------------------------------------------

 NO OUTPUT CONTROL FOR STRESS PERIOD   33   TIME STEP    1
 
 SOLVING FOR HEAD 
                                                   Max.-Head-Change                         Max.-Flux-Residual
  Residual-Control   Outer-Iter.   Inner-Iter.     Column Row Layer    Maximum-Head-Change  Column Row Layer    Maximum-Flux-Residual          L2-NORM 
          0                 1           2             5    8     1       0.1004306795E+00       5    8    1         0.5460810555E+01      0.1286275729E+02
          0                 2           2             5    7     1      -0.1580750411E+00       5    8    1        -0.8665989769E+01      0.2104731014E+02
          0                 3           2             5    7     1       0.1076421389E-01       5    8    1         0.6066134884E+00      0.1473296324E+01
          0                 4           2             5    7     1      -0.4283186660E-03       5    8    1        -0.2481055434E-01      0.6025797789E-01
          0                 5           1             5    7     1       0.5281361060E-05       5    8    1         0.3144261586E-03      0.7636543087E-03

    ------------------------------------------------
       NWT REQUIRED            5 OUTER ITERATIONS 
       AND A TOTAL OF          9 INNER ITERATIONS.
    ------------------------------------------------

 NO OUTPUT CONTROL FOR STRESS PERIOD   33   TIME STEP    2
 
 SOLVING FOR HEAD 
                                                   Max.-Head-Change                         Max.-Flux-Residual
  Residual-Control   Outer-Iter.   Inner-Iter.     Column Row Layer    Maximum-Head-Change  Column Row Layer    Maximum-Flux-Residual          L2-NORM 
          0                 1           2             5    8     1       0.1004460608E+00       5    8    1         0.5460227618E+01      0.1290527799E+02
          0                 2           2             5    7     1      -0.1581365565E+00       5    8    1        -0.8665931453E+01      0.2105311122E+02
          0                 3           2             5    7     1       0.1076691373E-01       5    8    1         0.6065264556E+00      0.1473499216E+01
          0                 4           2             5    7     1      -0.4284260975E-03       5    8    1        -0.2480699457E-01      0.6026627625E-01
          0                 5           1             5    7     1       0.5282685635E-05       5    8    1         0.3143810263E-03      0.7637596152E-03

    ------------------------------------------------
       NWT REQUIRED            5 OUTER ITERATIONS 
       AND A TOTAL OF          9 INNER ITERATIONS.
    ------------------------------------------------

 NO OUTPUT CONTROL FOR STRESS PERIOD   33   TIME STEP    3
 
 SOLVING FOR HEAD 
                                                   Max.-Head-Change                         Max.-Flux-Residual
  Residual-Control   Outer-Iter.   Inner-Iter.     Column Row Layer    Maximum-Head-Change  Column Row Layer    Maximum-Flux-Residual          L2-NORM 
          0                 1           2             5    8     1       0.1004853312E+00       5    8    1         0.5461019159E+01      0.1294856886E+02
          0                 2           2             4    7     1      -0.1582273872E+00       5    8    1        -0.8666010584E+01      0.2105888815E+02
          0                 3           2             4    7     1       0.1077308257E-01       5    8    1         0.6065320123E+00      0.1473903575E+01
          0                 4           2             4    7     1      -0.4286715660E-03       5    8    1        -0.2480722177E-01      0.6028281481E-01
          0                 5           1             4    7     1       0.5285705443E-05       5    8    1         0.3143839208E-03      0.7639746031E-03

    ------------------------------------------------
       NWT REQUIRED            5 OUTER ITERATIONS 
       AND A TOTAL OF          9 INNER ITERATIONS.
    ------------------------------------------------

 NO OUTPUT CONTROL FOR STRESS PERIOD   33   TIME STEP    4
 
 SOLVING FOR HEAD 
                                                   Max.-Head-Change                         Max.-Flux-Residual
  Residual-Control   Outer-Iter.   Inner-Iter.     Column Row Layer    Maximum-Head-Change  Column Row Layer    Maximum-Flux-Residual          L2-NORM 
          0                 1           2             5    8     1       0.1005460661E+00       5    8    1         0.5463046551E+01      0.1299250216E+02
          0                 2           2             4    7     1      -0.1583229925E+00       5    8    1        -0.8666213298E+01      0.2106463731E+02
          0                 3           2             4    7     1       0.1077959219E-01       5    8    1         0.6065462187E+00      0.1474305991E+01
          0                 4           2             4    7     1      -0.4289305938E-03       5    8    1        -0.2480780274E-01      0.6029927367E-01
          0                 5           1             4    7     1       0.5288899658E-05       5    8    1         0.3143912861E-03      0.7641776594E-03

    ------------------------------------------------
       NWT REQUIRED            5 OUTER ITERATIONS 
       AND A TOTAL OF          9 INNER ITERATIONS.
    ------------------------------------------------

 NO OUTPUT CONTROL FOR STRESS PERIOD   33   TIME STEP    5
 
 SOLVING FOR HEAD 
                                                   Max.-Head-Change                         Max.-Flux-Residual
  Residual-Control   Outer-Iter.   Inner-Iter.     Column Row Layer    Maximum-Head-Change  Column Row Layer    Maximum-Flux-Residual          L2-NORM 
          0                 1           2             5    8     1       0.1006262475E+00       5    8    1         0.5466194519E+01      0.1303694113E+02
          0                 2           2             4    7     1      -0.1584162430E+00       5    8    1        -0.8666157120E+01      0.2107035231E+02
          0                 3           2             4    7     1       0.1078594151E-01       5    8    1         0.6065423066E+00      0.1474706016E+01
          0                 4           2             4    7     1      -0.4291832421E-03       5    8    1        -0.2480764266E-01      0.6031563483E-01
          0                 5           1             4    7     1       0.5292014455E-05       5    8    1         0.3143892488E-03      0.7643849395E-03

    ------------------------------------------------
       NWT REQUIRED            5 OUTER ITERATIONS 
       AND A TOTAL OF          9 INNER ITERATIONS.
    ------------------------------------------------

 NO OUTPUT CONTROL FOR STRESS PERIOD   33   TIME STEP    6
 
 SOLVING FOR HEAD 
                                                   Max.-Head-Change                         Max.-Flux-Residual
  Residual-Control   Outer-Iter.   Inner-Iter.     Column Row Layer    Maximum-Head-Change  Column Row Layer    Maximum-Flux-Residual          L2-NORM 
          0                 1           2             5    8     1       0.1007387625E+00       5    8    1         0.5470737954E+01      0.1308182395E+02
          0                 2           2             4    7     1      -0.1585068896E+00       5    8    1        -0.8666982693E+01      0.2107603873E+02
          0                 3           2             4    7     1       0.1079211348E-01       5    8    1         0.6066001035E+00      0.1475104042E+01
          0                 4           2             4    7     1      -0.4294288343E-03       5    8    1        -0.2481000651E-01      0.6033191422E-01
          0                 5           1             4    7     1       0.5295042888E-05       5    8    1         0.3144192178E-03      0.7645914061E-03

    ------------------------------------------------
       NWT REQUIRED            5 OUTER ITERATIONS 
       AND A TOTAL OF          9 INNER ITERATIONS.
    ------------------------------------------------

 NO OUTPUT CONTROL FOR STRESS PERIOD   33   TIME STEP    7
 
 SOLVING FOR HEAD 
                                                   Max.-Head-Change                         Max.-Flux-Residual
  Residual-Control   Outer-Iter.   Inner-Iter.     Column Row Layer    Maximum-Head-Change  Column Row Layer    Maximum-Flux-Residual          L2-NORM 
          0                 1           2             5    8     1       0.1008602230E+00       5    8    1         0.5476269567E+01      0.1312697930E+02
          0                 2           2             4    7     1      -0.1585953375E+00       5    8    1        -0.8667535810E+01      0.2108167933E+02
          0                 3           2             4    7     1       0.1079813577E-01       5    8    1         0.6066388341E+00      0.1475498860E+01
          0                 4           2             4    7     1      -0.4296684700E-03       5    8    1        -0.2481159052E-01      0.6034806240E-01
          0                 5           1             4    7     1       0.5297997503E-05       5    8    1         0.3144392876E-03      0.7647958553E-03

    ------------------------------------------------
       NWT REQUIRED            5 OUTER ITERATIONS 
       AND A TOTAL OF          9 INNER ITERATIONS.
    ------------------------------------------------

 NO OUTPUT CONTROL FOR STRESS PERIOD   33   TIME STEP    8
 
 SOLVING FOR HEAD 
                                                   Max.-Head-Change                         Max.-Flux-Residual
  Residual-Control   Outer-Iter.   Inner-Iter.     Column Row Layer    Maximum-Head-Change  Column Row Layer    Maximum-Flux-Residual          L2-NORM 
          0                 1           2             5    8     1       0.1009950417E+00       5    8    1         0.5482573350E+01      0.1317230641E+02
          0                 2           2             4    7     1      -0.1586815740E+00       5    8    1        -0.8668166145E+01      0.2108728191E+02
          0                 3           2             4    7     1       0.1080400750E-01       5    8    1         0.6066829691E+00      0.1475891018E+01
          0                 4           2             4    7     1      -0.4299021147E-03       5    8    1        -0.2481339560E-01      0.6036410179E-01
          0                 5           1             4    7     1       0.5300878301E-05       5    8    1         0.3144621824E-03      0.7649994849E-03

    ------------------------------------------------
       NWT REQUIRED            5 OUTER ITERATIONS 
       AND A TOTAL OF          9 INNER ITERATIONS.
    ------------------------------------------------

 NO OUTPUT CONTROL FOR STRESS PERIOD   33   TIME STEP    9
 
 SOLVING FOR HEAD 
                                                   Max.-Head-Change                         Max.-Flux-Residual
  Residual-Control   Outer-Iter.   Inner-Iter.     Column Row Layer    Maximum-Head-Change  Column Row Layer    Maximum-Flux-Residual          L2-NORM 
          0                 1           2             5    8     1       0.1011418319E+00       5    8    1         0.5489569773E+01      0.1321779306E+02
          0                 2           2             4    7     1      -0.1587656578E+00       5    8    1        -0.8668865746E+01      0.2109284186E+02
          0                 3           2             4    7     1       0.1080973266E-01       5    8    1         0.6067319519E+00      0.1476280192E+01
          0                 4           2             4    7     1      -0.4301299274E-03       5    8    1        -0.2481539896E-01      0.6038001919E-01
          0                 5           1             4    7     1       0.5303687745E-05       5    8    1         0.3144875511E-03      0.7652024154E-03

    ------------------------------------------------
       NWT REQUIRED            5 OUTER ITERATIONS 
       AND A TOTAL OF          9 INNER ITERATIONS.
    ------------------------------------------------

 NO OUTPUT CONTROL FOR STRESS PERIOD   33   TIME STEP   10
 
 SOLVING FOR HEAD 
                                                   Max.-Head-Change                         Max.-Flux-Residual
  Residual-Control   Outer-Iter.   Inner-Iter.     Column Row Layer    Maximum-Head-Change  Column Row Layer    Maximum-Flux-Residual          L2-NORM 
          0                 1           2             5    8     1       0.1012994634E+00       5    8    1         0.5497194595E+01      0.1326337955E+02
          0                 2           2             4    7     1      -0.1588476961E+00       5    8    1        -0.8669628188E+01      0.2109835826E+02
          0                 3           2             4    7     1       0.1081531855E-01       5    8    1         0.6067853330E+00      0.1476666318E+01
          0                 4           2             4    7     1      -0.4303521981E-03       5    8    1        -0.2481758219E-01      0.6039581181E-01
          0                 5           1             4    7     1       0.5306428300E-05       5    8    1         0.3145152227E-03      0.7654011355E-03

    ------------------------------------------------
       NWT REQUIRED            5 OUTER ITERATIONS 
       AND A TOTAL OF          9 INNER ITERATIONS.
    ------------------------------------------------

 NO OUTPUT CONTROL FOR STRESS PERIOD   33   TIME STEP   11
 
 SOLVING FOR HEAD 
                                                   Max.-Head-Change                         Max.-Flux-Residual
  Residual-Control   Outer-Iter.   Inner-Iter.     Column Row Layer    Maximum-Head-Change  Column Row Layer    Maximum-Flux-Residual          L2-NORM 
          0                 1           2             5    8     1       0.1014664880E+00       5    8    1         0.5505365880E+01      0.1330898799E+02
          0                 2           2             4    7     1      -0.1589403600E+00       5    8    1        -0.8670445277E+01      0.2110382498E+02
          0                 3           2             4    7     1       0.1082162774E-01       5    8    1         0.6068425349E+00      0.1477048968E+01
          0                 4           2             4    7     1      -0.4306032503E-03       5    8    1        -0.2481992172E-01      0.6041146231E-01
          0                 5           1             4    7     1       0.5309523718E-05       5    8    1         0.3145448682E-03      0.7655995849E-03

    ------------------------------------------------
       NWT REQUIRED            5 OUTER ITERATIONS 
       AND A TOTAL OF          9 INNER ITERATIONS.
    ------------------------------------------------

 NO OUTPUT CONTROL FOR STRESS PERIOD   33   TIME STEP   12
 
 SOLVING FOR HEAD 
                                                   Max.-Head-Change                         Max.-Flux-Residual
  Residual-Control   Outer-Iter.   Inner-Iter.     Column Row Layer    Maximum-Head-Change  Column Row Layer    Maximum-Flux-Residual          L2-NORM 
          0                 1           2             5    8     1       0.1016427838E+00       5    8    1         0.5514049452E+01      0.1335460880E+02
          0                 2           2             4    7     1      -0.1590056240E+00       5    8    1        -0.8671313590E+01      0.2110924894E+02
          0                 3           2             4    7     1       0.1082607165E-01       5    8    1         0.6069033296E+00      0.1477428624E+01
          0                 4           2             4    7     1      -0.4307800796E-03       5    8    1        -0.2482240819E-01      0.6042699036E-01
          0                 5           1             4    7     1       0.5311704422E-05       5    8    1         0.3145763808E-03      0.7657961256E-03

    ------------------------------------------------
       NWT REQUIRED            5 OUTER ITERATIONS 
       AND A TOTAL OF          9 INNER ITERATIONS.
    ------------------------------------------------

 NO OUTPUT CONTROL FOR STRESS PERIOD   33   TIME STEP   13
 
 SOLVING FOR HEAD 
                                                   Max.-Head-Change                         Max.-Flux-Residual
  Residual-Control   Outer-Iter.   Inner-Iter.     Column Row Layer    Maximum-Head-Change  Column Row Layer    Maximum-Flux-Residual          L2-NORM 
          0                 1           2             5    8     1       0.1018268569E+00       5    8    1         0.5523196262E+01      0.1340016687E+02
          0                 2           2             4    7     1      -0.1590799906E+00       5    8    1        -0.8672228231E+01      0.2111462090E+02
          0                 3           2             4    7     1       0.1083113523E-01       5    8    1         0.6069673633E+00      0.1477804641E+01
          0                 4           2             4    7     1      -0.4309815664E-03       5    8    1        -0.2482502713E-01      0.6044236959E-01
          0                 5           1             4    7     1       0.5314188575E-05       5    8    1         0.3146095771E-03      0.7659914052E-03

    ------------------------------------------------
       NWT REQUIRED            5 OUTER ITERATIONS 
       AND A TOTAL OF          9 INNER ITERATIONS.
    ------------------------------------------------

 NO OUTPUT CONTROL FOR STRESS PERIOD   33   TIME STEP   14
 
 SOLVING FOR HEAD 
                                                   Max.-Head-Change                         Max.-Flux-Residual
  Residual-Control   Outer-Iter.   Inner-Iter.     Column Row Layer    Maximum-Head-Change  Column Row Layer    Maximum-Flux-Residual          L2-NORM 
          0                 1           2             5    8     1       0.1020177967E+00       5    8    1         0.5532746063E+01      0.1344560282E+02
          0                 2           2             4    7     1      -0.1591527259E+00       5    8    1        -0.8673183173E+01      0.2111994253E+02
          0                 3           2             4    7     1       0.1083608773E-01       5    8    1         0.6070342174E+00      0.1478177135E+01
          0                 4           2             4    7     1      -0.4311786334E-03       5    8    1        -0.2482776143E-01      0.6045760472E-01
          0                 5           1             4    7     1       0.5316618625E-05       5    8    1         0.3146442248E-03      0.7661862329E-03

    ------------------------------------------------
       NWT REQUIRED            5 OUTER ITERATIONS 
       AND A TOTAL OF          9 INNER ITERATIONS.
    ------------------------------------------------

 NO OUTPUT CONTROL FOR STRESS PERIOD   33   TIME STEP   15
 
 SOLVING FOR HEAD 
                                                   Max.-Head-Change                         Max.-Flux-Residual
  Residual-Control   Outer-Iter.   Inner-Iter.     Column Row Layer    Maximum-Head-Change  Column Row Layer    Maximum-Flux-Residual          L2-NORM 
          0                 1           2             5    8     1       0.1022150516E+00       5    8    1         0.5542667366E+01      0.1349086910E+02
          0                 2           2             4    7     1      -0.1592238845E+00       5    8    1        -0.8674175266E+01      0.2112521225E+02
          0                 3           2             4    7     1       0.1084093288E-01       5    8    1         0.6071036716E+00      0.1478545996E+01
          0                 4           2             4    7     1      -0.4313714289E-03       5    8    1        -0.2483060208E-01      0.6047269126E-01
          0                 5           1             4    7     1       0.5318996028E-05       5    8    1         0.3146802201E-03      0.7663786991E-03

    ------------------------------------------------
       NWT REQUIRED            5 OUTER ITERATIONS 
       AND A TOTAL OF          9 INNER ITERATIONS.
    ------------------------------------------------

 NO OUTPUT CONTROL FOR STRESS PERIOD   33   TIME STEP   16
 
 SOLVING FOR HEAD 
                                                   Max.-Head-Change                         Max.-Flux-Residual
  Residual-Control   Outer-Iter.   Inner-Iter.     Column Row Layer    Maximum-Head-Change  Column Row Layer    Maximum-Flux-Residual          L2-NORM 
          0                 1           2             5    8     1       0.1024175751E+00       5    8    1         0.5552900487E+01      0.1353593409E+02
          0                 2           2             4    7     1      -0.1592935189E+00       5    8    1        -0.8675198543E+01      0.2113042936E+02
          0                 3           2             4    7     1       0.1084567425E-01       5    8    1         0.6071753082E+00      0.1478911174E+01
          0                 4           2             4    7     1      -0.4315600944E-03       5    8    1        -0.2483353198E-01      0.6048762705E-01
          0                 5           1             4    7     1       0.5321322016E-05       5    8    1         0.3147173545E-03      0.7665646949E-03

    ------------------------------------------------
       NWT REQUIRED            5 OUTER ITERATIONS 
       AND A TOTAL OF          9 INNER ITERATIONS.
    ------------------------------------------------

 NO OUTPUT CONTROL FOR STRESS PERIOD   33   TIME STEP   17
 
 SOLVING FOR HEAD 
                                                   Max.-Head-Change                         Max.-Flux-Residual
  Residual-Control   Outer-Iter.   Inner-Iter.     Column Row Layer    Maximum-Head-Change  Column Row Layer    Maximum-Flux-Residual          L2-NORM 
          0                 1           2             5    8     1       0.1026248276E+00       5    8    1         0.5563414483E+01      0.1358076939E+02
          0                 2           2             4    7     1      -0.1593616672E+00       5    8    1        -0.8676249909E+01      0.2113559371E+02
          0                 3           2             4    7     1       0.1085031444E-01       5    8    1         0.6072489105E+00      0.1479272660E+01
          0                 4           2             4    7     1      -0.4317447341E-03       5    8    1        -0.2483654229E-01      0.6050241201E-01
          0                 5           1             4    7     1       0.5323598718E-05       5    8    1         0.3147554939E-03      0.7667519592E-03

    ------------------------------------------------
       NWT REQUIRED            5 OUTER ITERATIONS 
       AND A TOTAL OF          9 INNER ITERATIONS.
    ------------------------------------------------

 NO OUTPUT CONTROL FOR STRESS PERIOD   33   TIME STEP   18
 
 SOLVING FOR HEAD 
                                                   Max.-Head-Change                         Max.-Flux-Residual
  Residual-Control   Outer-Iter.   Inner-Iter.     Column Row Layer    Maximum-Head-Change  Column Row Layer    Maximum-Flux-Residual          L2-NORM 
          0                 1           2             5    8     1       0.1028361812E+00       5    8    1         0.5574173613E+01      0.1362534989E+02
          0                 2           2             4    7     1      -0.1594283921E+00       5    8    1        -0.8677325790E+01      0.2114070456E+02
          0                 3           2             4    7     1       0.1085485771E-01       5    8    1         0.6073242284E+00      0.1479630401E+01
          0                 4           2             4    7     1      -0.4319255176E-03       5    8    1        -0.2483962276E-01      0.6051704370E-01
          0                 5           1             4    7     1       0.5325828149E-05       5    8    1         0.3147945463E-03      0.7669373790E-03

    ------------------------------------------------
       NWT REQUIRED            5 OUTER ITERATIONS 
       AND A TOTAL OF          9 INNER ITERATIONS.
    ------------------------------------------------

 NO OUTPUT CONTROL FOR STRESS PERIOD   33   TIME STEP   19
 
 SOLVING FOR HEAD 
                                                   Max.-Head-Change                         Max.-Flux-Residual
  Residual-Control   Outer-Iter.   Inner-Iter.     Column Row Layer    Maximum-Head-Change  Column Row Layer    Maximum-Flux-Residual          L2-NORM 
          0                 1           2             5    8     1       0.1030512019E+00       5    8    1         0.5585153091E+01      0.1366965608E+02
          0                 2           2             4    7     1      -0.1594937277E+00       5    8    1        -0.8678423707E+01      0.2114576201E+02
          0                 3           2             4    7     1       0.1085930639E-01       5    8    1         0.6074010883E+00      0.1479984404E+01
          0                 4           2             4    7     1      -0.4321025366E-03       5    8    1        -0.2484276632E-01      0.6053152259E-01
          0                 5           1             4    7     1       0.5328010870E-05       5    8    1         0.3148343824E-03      0.7671220325E-03

    ------------------------------------------------
       NWT REQUIRED            5 OUTER ITERATIONS 
       AND A TOTAL OF          9 INNER ITERATIONS.
    ------------------------------------------------

 NO OUTPUT CONTROL FOR STRESS PERIOD   33   TIME STEP   20
 
 SOLVING FOR HEAD 
                                                   Max.-Head-Change                         Max.-Flux-Residual
  Residual-Control   Outer-Iter.   Inner-Iter.     Column Row Layer    Maximum-Head-Change  Column Row Layer    Maximum-Flux-Residual          L2-NORM 
          0                 1           2             5    8     1       0.1032690828E+00       5    8    1         0.5596307106E+01      0.1371365296E+02
          0                 2           2             4    7     1      -0.1595577198E+00       5    8    1        -0.8679539079E+01      0.2115076465E+02
          0                 3           2             4    7     1       0.1086366359E-01       5    8    1         0.6074791698E+00      0.1480334571E+01
          0                 4           2             4    7     1      -0.4322759156E-03       5    8    1        -0.2484595982E-01      0.6054584444E-01
          0                 5           1             4    7     1       0.5330148337E-05       5    8    1         0.3148748474E-03      0.7673026656E-03

    ------------------------------------------------
       NWT REQUIRED            5 OUTER ITERATIONS 
       AND A TOTAL OF          9 INNER ITERATIONS.
    ------------------------------------------------

 NO OUTPUT CONTROL FOR STRESS PERIOD   33   TIME STEP   21
 
 SOLVING FOR HEAD 
                                                   Max.-Head-Change                         Max.-Flux-Residual
  Residual-Control   Outer-Iter.   Inner-Iter.     Column Row Layer    Maximum-Head-Change  Column Row Layer    Maximum-Flux-Residual          L2-NORM 
          0                 1           2             5    8     1       0.1034896431E+00       5    8    1         0.5607624907E+01      0.1375734077E+02
          0                 2           2             4    7     1      -0.1596204127E+00       5    8    1        -0.8680670831E+01      0.2115571368E+02
          0                 3           2             4    7     1       0.1086793233E-01       5    8    1         0.6075583974E+00      0.1480680986E+01
          0                 4           2             4    7     1      -0.4324457750E-03       5    8    1        -0.2484920022E-01      0.6056001298E-01
          0                 5           1             4    7     1       0.5332243127E-05       5    8    1         0.3149159118E-03      0.7674819412E-03

    ------------------------------------------------
       NWT REQUIRED            5 OUTER ITERATIONS 
       AND A TOTAL OF          9 INNER ITERATIONS.
    ------------------------------------------------

 NO OUTPUT CONTROL FOR STRESS PERIOD   33   TIME STEP   22
 
 SOLVING FOR HEAD 
                                                   Max.-Head-Change                         Max.-Flux-Residual
  Residual-Control   Outer-Iter.   Inner-Iter.     Column Row Layer    Maximum-Head-Change  Column Row Layer    Maximum-Flux-Residual          L2-NORM 
          0                 1           2             5    8     1       0.1037124441E+00       5    8    1         0.5619081575E+01      0.1380069251E+02
          0                 2           2             4    7     1      -0.1596818358E+00       5    8    1        -0.8681816471E+01      0.2116060818E+02
          0                 3           2             4    7     1       0.1087211462E-01       5    8    1         0.6076385969E+00      0.1481023583E+01
          0                 4           2             4    7     1      -0.4326121940E-03       5    8    1        -0.2485248035E-01      0.6057402528E-01
          0                 5           1             4    7     1       0.5334295127E-05       5    8    1         0.3149574841E-03      0.7676612057E-03

    ------------------------------------------------
       NWT REQUIRED            5 OUTER ITERATIONS 
       AND A TOTAL OF          9 INNER ITERATIONS.
    ------------------------------------------------

 NO OUTPUT CONTROL FOR STRESS PERIOD   33   TIME STEP   23
 
 SOLVING FOR HEAD 
                                                   Max.-Head-Change                         Max.-Flux-Residual
  Residual-Control   Outer-Iter.   Inner-Iter.     Column Row Layer    Maximum-Head-Change  Column Row Layer    Maximum-Flux-Residual          L2-NORM 
          0                 1           2             5    8     1       0.1039368072E+00       5    8    1         0.5630638839E+01      0.1384369226E+02
          0                 2           2             4    7     1      -0.1597420438E+00       5    8    1        -0.8682972173E+01      0.2116544793E+02
          0                 3           2             4    7     1       0.1087621417E-01       5    8    1         0.6077195003E+00      0.1481362348E+01
          0                 4           2             4    7     1      -0.4327753206E-03       5    8    1        -0.2485578929E-01      0.6058788085E-01
          0                 5           1             4    7     1       0.5336306801E-05       5    8    1         0.3149994225E-03      0.7678351452E-03

    ------------------------------------------------
       NWT REQUIRED            5 OUTER ITERATIONS 
       AND A TOTAL OF          9 INNER ITERATIONS.
    ------------------------------------------------

 NO OUTPUT CONTROL FOR STRESS PERIOD   33   TIME STEP   24
 
 SOLVING FOR HEAD 
                                                   Max.-Head-Change                         Max.-Flux-Residual
  Residual-Control   Outer-Iter.   Inner-Iter.     Column Row Layer    Maximum-Head-Change  Column Row Layer    Maximum-Flux-Residual          L2-NORM 
          0                 1           2             5    8     1       0.1041626712E+00       5    8    1         0.5642292584E+01      0.1388633357E+02
          0                 2           2             4    7     1      -0.1598010628E+00       5    8    1        -0.8684137523E+01      0.2117023366E+02
          0                 3           2             4    7     1       0.1088023277E-01       5    8    1         0.6078010789E+00      0.1481697333E+01
          0                 4           2             4    7     1      -0.4329352262E-03       5    8    1        -0.2485912584E-01      0.6060158180E-01
          0                 5           1             4    7     1       0.5338278150E-05       5    8    1         0.3150416999E-03      0.7680089125E-03

    ------------------------------------------------
       NWT REQUIRED            5 OUTER ITERATIONS 
       AND A TOTAL OF          9 INNER ITERATIONS.
    ------------------------------------------------

 NO OUTPUT CONTROL FOR STRESS PERIOD   33   TIME STEP   25
 
 SOLVING FOR HEAD 
                                                   Max.-Head-Change                         Max.-Flux-Residual
  Residual-Control   Outer-Iter.   Inner-Iter.     Column Row Layer    Maximum-Head-Change  Column Row Layer    Maximum-Flux-Residual          L2-NORM 
          0                 1           2             5    8     1       0.1043895645E+00       5    8    1         0.5654016340E+01      0.1392860235E+02
          0                 2           2             4    7     1      -0.1598589309E+00       5    8    1        -0.8685309877E+01      0.2117496475E+02
          0                 3           2             4    7     1       0.1088417300E-01       5    8    1         0.6078831473E+00      0.1482028492E+01
          0                 4           2             4    7     1      -0.4330920137E-03       5    8    1        -0.2486248241E-01      0.6061512631E-01
          0                 5           1             4    7     1       0.5340211414E-05       5    8    1         0.3150842372E-03      0.7681808995E-03

    ------------------------------------------------
       NWT REQUIRED            5 OUTER ITERATIONS 
       AND A TOTAL OF          9 INNER ITERATIONS.
    ------------------------------------------------

 NO OUTPUT CONTROL FOR STRESS PERIOD   33   TIME STEP   26
 
 SOLVING FOR HEAD 
                                                   Max.-Head-Change                         Max.-Flux-Residual
  Residual-Control   Outer-Iter.   Inner-Iter.     Column Row Layer    Maximum-Head-Change  Column Row Layer    Maximum-Flux-Residual          L2-NORM 
          0                 1           2             5    8     1       0.1046173389E+00       5    8    1         0.5665801183E+01      0.1397048978E+02
          0                 2           2             4    7     1      -0.1599156720E+00       5    8    1        -0.8686488340E+01      0.2117964179E+02
          0                 3           2             4    7     1       0.1088803650E-01       5    8    1         0.6079656431E+00      0.1482355868E+01
          0                 4           2             4    7     1      -0.4332457476E-03       5    8    1        -0.2486585650E-01      0.6062851616E-01
          0                 5           1             4    7     1       0.5342107041E-05       5    8    1         0.3151270012E-03      0.7683503389E-03

    ------------------------------------------------
       NWT REQUIRED            5 OUTER ITERATIONS 
       AND A TOTAL OF          9 INNER ITERATIONS.
    ------------------------------------------------

 NO OUTPUT CONTROL FOR STRESS PERIOD   33   TIME STEP   27
 
 SOLVING FOR HEAD 
                                                   Max.-Head-Change                         Max.-Flux-Residual
  Residual-Control   Outer-Iter.   Inner-Iter.     Column Row Layer    Maximum-Head-Change  Column Row Layer    Maximum-Flux-Residual          L2-NORM 
          0                 1           2             5    8     1       0.1048455856E+00       5    8    1         0.5677623910E+01      0.1401198969E+02
          0                 2           2             4    7     1      -0.1599713350E+00       5    8    1        -0.8687670592E+01      0.2118426509E+02
          0                 3           2             4    7     1       0.1089182659E-01       5    8    1         0.6080484039E+00      0.1482679483E+01
          0                 4           2             4    7     1      -0.4333965605E-03       5    8    1        -0.2486924139E-01      0.6064175206E-01
          0                 5           1             4    7     1       0.5343966599E-05       5    8    1         0.3151698991E-03      0.7685178113E-03

    ------------------------------------------------
       NWT REQUIRED            5 OUTER ITERATIONS 
       AND A TOTAL OF          9 INNER ITERATIONS.
    ------------------------------------------------

 NO OUTPUT CONTROL FOR STRESS PERIOD   33   TIME STEP   28
 
 SOLVING FOR HEAD 
                                                   Max.-Head-Change                         Max.-Flux-Residual
  Residual-Control   Outer-Iter.   Inner-Iter.     Column Row Layer    Maximum-Head-Change  Column Row Layer    Maximum-Flux-Residual          L2-NORM 
          0                 1           2             5    8     1       0.1050740593E+00       5    8    1         0.5689471083E+01      0.1405309213E+02
          0                 2           2             4    7     1      -0.1600259536E+00       5    8    1        -0.8688855291E+01      0.2118883443E+02
          0                 3           2             4    7     1       0.1089554558E-01       5    8    1         0.6081313357E+00      0.1482999294E+01
          0                 4           2             4    7     1      -0.4335445442E-03       5    8    1        -0.2487263330E-01      0.6065483472E-01
          0                 5           1             4    7     1       0.5345791321E-05       5    8    1         0.3152128756E-03      0.7688517512E-03

    ------------------------------------------------
       NWT REQUIRED            5 OUTER ITERATIONS 
       AND A TOTAL OF          9 INNER ITERATIONS.
    ------------------------------------------------

 NO OUTPUT CONTROL FOR STRESS PERIOD   33   TIME STEP   29
 
 SOLVING FOR HEAD 
                                                   Max.-Head-Change                         Max.-Flux-Residual
  Residual-Control   Outer-Iter.   Inner-Iter.     Column Row Layer    Maximum-Head-Change  Column Row Layer    Maximum-Flux-Residual          L2-NORM 
          0                 1           2             5    8     1       0.1053026898E+00       5    8    1         0.5701337759E+01      0.1409380081E+02
          0                 2           2             4    7     1      -0.1600795475E+00       5    8    1        -0.8690041941E+01      0.2119335153E+02
          0                 3           2             4    7     1       0.1089919479E-01       5    8    1         0.6082144038E+00      0.1483315502E+01
          0                 4           2             4    7     1      -0.4336897510E-03       5    8    1        -0.2487603078E-01      0.6066776543E-01
          0                 5           1             4    7     1       0.5347581766E-05       5    8    1         0.3152559450E-03      0.7688475942E-03

    ------------------------------------------------
       NWT REQUIRED            5 OUTER ITERATIONS 
       AND A TOTAL OF          9 INNER ITERATIONS.
    ------------------------------------------------

 NO OUTPUT CONTROL FOR STRESS PERIOD   33   TIME STEP   30



 STREAM LISTING     PERIOD     33   STEP       30

 LAYER ROW COL. STREAM  RCH.  FLOW INTO     FLOW TO   FLOW OUT OF   OVRLND.     DIRECT     STREAM       STREAM     STREAM     STREAM   STREAMBED  STREAMBED
                SEG.NO.  NO.  STRM. RCH.    AQUIFER    STRM. RCH.    RUNOFF     PRECIP       ET          HEAD       DEPTH      WIDTH   CONDCTNC.   GRADIENT

   1    1    1     1     1    1.9000E+01  2.1427E-01   1.8786E+01  0.000E+00  0.000E+00  0.000E+00  1.09413E+03  1.082E+00  1.166E+01  5.249E-02  1.361E+00
   1    2    2     1     2    1.8786E+01  3.3054E-01   1.8455E+01  0.000E+00  0.000E+00  0.000E+00  1.08914E+03  1.077E+00  1.158E+01  8.107E-02  1.359E+00
   1    3    3     1     3    1.8455E+01  2.8064E-01   1.8175E+01  0.000E+00  0.000E+00  0.000E+00  1.08349E+03  1.072E+00  1.149E+01  6.892E-02  1.357E+00
   1    3    4     1     4    1.8175E+01  2.5740E-01   1.7917E+01  0.000E+00  0.000E+00  0.000E+00  1.07848E+03  1.068E+00  1.140E+01  6.328E-02  1.356E+00
   1    4    5     2     1    1.5917E+01  3.0542E-01   1.5612E+01  0.000E+00  0.000E+00  0.000E+00  1.07285E+03  9.157E-01  1.200E+01  7.800E-02  1.305E+00
   1    5    6     2     2    1.5612E+01  2.3438E-01   1.5377E+01  0.000E+00  0.000E+00  0.000E+00  1.06742E+03  9.063E-01  1.200E+01  6.000E-02  1.302E+00
   1    6    6     2     3    1.5377E+01  2.3388E-01   1.5143E+01  0.000E+00  0.000E+00  0.000E+00  1.06269E+03  8.980E-01  1.200E+01  6.000E-02  1.299E+00
   1    7    6     2     4    1.5143E+01  2.3338E-01   1.4910E+01  0.000E+00  0.000E+00  0.000E+00  1.05797E+03  8.897E-01  1.200E+01  6.000E-02  1.297E+00
   1    8    6     2     5    1.4910E+01  2.3289E-01   1.4677E+01  0.000E+00  0.000E+00  0.000E+00  1.05324E+03  8.814E-01  1.200E+01  6.000E-02  1.294E+00
   1    3    5     3     1    2.0000E+00  2.8252E-01   1.7175E+00  0.000E+00  0.000E+00  0.000E+00  1.07555E+03  1.909E+00  9.636E+00  7.227E-02  1.955E+00
   1    3    6     3     2    1.7175E+00  2.4905E-01   1.4684E+00  0.000E+00  0.000E+00  0.000E+00  1.07264E+03  1.727E+00  8.909E+00  6.682E-02  1.864E+00
   1    3    7     3     3    1.4684E+00  1.9718E-01   1.2712E+00  0.000E+00  0.000E+00  0.000E+00  1.06987E+03  1.555E+00  8.218E+00  5.547E-02  1.777E+00
   1    4    8     3     4    1.2712E+00  2.2567E-01   1.0456E+00  0.000E+00  0.000E+00  0.000E+00  1.06682E+03  1.364E+00  7.455E+00  6.709E-02  1.682E+00
   1    5    8     3     5    1.0456E+00  1.5790E-01   8.8768E-01  0.000E+00  0.000E+00  0.000E+00  1.06362E+03  1.164E+00  6.655E+00  4.991E-02  1.582E+00
   1    6    8     3     6    8.8768E-01  5.5980E-02   8.3170E-01  0.000E+00  0.000E+00  0.000E+00  1.06158E+03  1.036E+00  6.145E+00  1.844E-02  1.518E+00
   1    5   10     4     1    1.0000E+01  9.0919E-02   9.9091E+00  0.000E+00  0.000E+00  0.000E+00  1.07836E+03  6.368E-01  1.000E+01  2.500E-02  1.212E+00
   1    5    9     4     2    9.9091E+00  1.8158E-01   9.7275E+00  0.000E+00  0.000E+00  0.000E+00  1.07154E+03  6.315E-01  1.000E+01  5.000E-02  1.211E+00
   1    6    8     4     3    9.7275E+00  1.2689E-01   9.6006E+00  0.000E+00  0.000E+00  0.000E+00  1.06381E+03  6.256E-01  1.000E+01  3.500E-02  1.209E+00
   1    6    8     5     1    1.0432E+01  2.2686E-01   1.0205E+01  0.000E+00  0.000E+00  0.000E+00  1.05868E+03  6.790E-01  1.542E+01  6.166E-02  1.226E+00
   1    7    7     5     2    1.0205E+01  2.7894E-01   9.9265E+00  0.000E+00  0.000E+00  0.000E+00  1.05417E+03  6.732E-01  1.519E+01  7.594E-02  1.224E+00
   1    8    7     5     3    9.9265E+00  1.9221E-01   9.7343E+00  0.000E+00  0.000E+00  0.000E+00  1.04992E+03  6.676E-01  1.497E+01  5.241E-02  1.223E+00
   1    8    6     5     4    9.7343E+00  1.3577E-01   9.5985E+00  0.000E+00  0.000E+00  0.000E+00  1.04691E+03  6.637E-01  1.482E+01  3.706E-02  1.221E+00
   1    9    6     6     1    2.4276E+01  2.5176E-01   2.4024E+01  0.000E+00  0.000E+00  0.000E+00  1.04392E+03  1.196E+00  1.200E+01  6.000E-02  1.399E+00
   1   10    7     6     2    2.4024E+01  2.5131E-01   2.3773E+01  0.000E+00  0.000E+00  0.000E+00  1.03937E+03  1.188E+00  1.200E+01  6.000E-02  1.396E+00
   1   11    7     6     3    2.3773E+01  2.5086E-01   2.3522E+01  0.000E+00  0.000E+00  0.000E+00  1.03482E+03  1.181E+00  1.200E+01  6.000E-02  1.394E+00
   1   12    7     6     4    2.3522E+01  2.5041E-01   2.3271E+01  0.000E+00  0.000E+00  0.000E+00  1.03026E+03  1.173E+00  1.200E+01  6.000E-02  1.391E+00
   1   13    7     6     5    2.3271E+01  6.9429E-03   2.3264E+01  0.000E+00  0.000E+00  0.000E+00  1.02708E+03  1.170E+00  1.200E+01  2.400E-02  9.643E-02
   1   14    9     7     1    1.5000E+02  1.3516E+00   1.4865E+02  0.000E+00  0.000E+00  0.000E+00  1.03987E+03  2.288E+00  5.529E+01  5.593E-01  8.055E-01
   1   13    8     7     2    1.4865E+02  1.9143E+00   1.4673E+02  0.000E+00  0.000E+00  0.000E+00  1.03478E+03  2.279E+00  5.526E+01  6.148E-01  1.038E+00
   1   13    7     7     3    1.4673E+02  1.6191E+00   1.4511E+02  0.000E+00  0.000E+00  0.000E+00  1.02969E+03  2.270E+00  5.521E+01  5.584E-01  9.665E-01
   1   13    6     8     1    1.6838E+02  1.0585E+00   1.6732E+02  0.000E+00  0.000E+00  0.000E+00  1.02481E+03  2.938E+00  4.260E+01  4.341E-01  8.127E-01
   1   13    5     8     2    1.6732E+02  3.0269E-01   1.6702E+02  0.000E+00  0.000E+00  0.000E+00  1.01856E+03  2.934E+00  4.254E+01  4.335E-01  2.328E-01
   1   13    4     8     3    1.6702E+02 -2.0125E+00   1.6903E+02  0.000E+00  0.000E+00  0.000E+00  1.01231E+03  2.939E+00  4.262E+01  4.343E+00 -1.545E-01
   1   13    3     8     4    1.6903E+02 -3.4408E+00   1.7247E+02  0.000E+00  0.000E+00  0.000E+00  1.00608E+03  2.957E+00  4.288E+01  4.369E+00 -2.625E-01
   1   13    2     8     5    1.7247E+02 -2.5261E+00   1.7500E+02  0.000E+00  0.000E+00  0.000E+00  9.99851E+02  2.976E+00  4.316E+01  4.398E+00 -1.915E-01
   1   13    1     8     6    1.7500E+02 -1.9697E+00   1.7697E+02  0.000E+00  0.000E+00  0.000E+00  9.94866E+02  2.991E+00  4.337E+01  2.651E+00 -2.476E-01





UNSATURATED ZONE PACKAGE VOLUMETRIC BUDGET FOR  TIME STEP    30 STRESS PERIOD   33
  ------------------------------------------------------------------------------



     CUMULATIVE VOLUMES      L**3       RATES FOR THIS TIME STEP      L**3/T
     ------------------                 ------------------------

           IN:                                      IN:
           ---                                      ---
        INFILTRATION =  1253589063.6541          INFILTRATION =          49.5675

          OUT:                                     OUT:
          ----                                     ----
              UZF ET =  1252751172.7445                UZF ET =          49.5675
        UZF RECHARGE =       73224.0000          UZF RECHARGE =       0.0000E+00

            IN - OUT =      764666.9096              IN - OUT =       0.0000E+00

          STORAGE:                                 STORAGE:
          --------                                 --------
      STORAGE CHANGE =      764658.5555        STORAGE CHANGE =       3.2472E-15

 PERCENT DISCREPANCY IS DIFFERENCE BETWEEN IN-OUT MINUS CHANGE IN STORAGE
 DIVIDED BY THE AVERAGE OF IN AND OUT TIMES 100

 PERCENT DISCREPANCY =           0.00     PERCENT DISCREPANCY =           0.00






1
  VOLUMETRIC BUDGET FOR AGRICULTURAL FIELDS AT  END OF TIME STEP   30, STRESS PERIOD  33
  ------------------------------------------------------------------------------

     CUMULATIVE VOLUMES      L**3       RATES FOR THIS TIME STEP      L**3/T
     ------------------                 ------------------------

           IN:                                      IN:
           ---                                      ---
               AG WELLS  =  1182185984.0000                 AG WELLS  =          48.7200
      DIVERSION SEGMENTS =           0.0000        DIVERSION SEGMENTS =           0.0000
       IRRIGATION PONDS  =           0.0000         IRRIGATION PONDS  =           0.0000
           GW IRRIGATION =           0.0000             GW IRRIGATION =           0.0000
           SW IRRIGATION =           0.0000             SW IRRIGATION =           0.0000
        SYSTEM LOSSES GW =           0.0000          SYSTEM LOSSES GW =           0.0000
        SYSTEM LOSSES SW =           0.0000          SYSTEM LOSSES SW =           0.0000

                TOTAL IN =  1182185984.0000                  TOTAL IN =          48.7200

          OUT:                                     OUT:
          ----                                     ----
               AG WELLS  =           0.0000                 AG WELLS  =           0.0000
      DIVERSION SEGMENTS =           0.0000        DIVERSION SEGMENTS =           0.0000
       IRRIGATION PONDS  =           0.0000         IRRIGATION PONDS  =           0.0000
           GW IRRIGATION =  1182185984.0000             GW IRRIGATION =          48.7200
           SW IRRIGATION =           0.0000             SW IRRIGATION =           0.0000
        SYSTEM LOSSES GW =           0.0000          SYSTEM LOSSES GW =           0.0000
        SYSTEM LOSSES SW =           0.0000          SYSTEM LOSSES SW =           0.0000

               TOTAL OUT =  1182185984.0000                 TOTAL OUT =          48.7200

                IN - OUT =           0.0000                  IN - OUT =           0.0000

     PERCENT DISCREPANCY =           0.00         PERCENT DISCREPANCY =           0.00



1
  VOLUMETRIC BUDGET FOR ENTIRE MODEL AT END OF TIME STEP   30, STRESS PERIOD  33
  ------------------------------------------------------------------------------

     CUMULATIVE VOLUMES      L**3       RATES FOR THIS TIME STEP      L**3/T
     ------------------                 ------------------------

           IN:                                      IN:
           ---                                      ---
             STORAGE     =  1500942592.0000               STORAGE     =          46.7541
       CONSTANT HEAD     =           0.0000         CONSTANT HEAD     =           0.0000
     HEAD DEP BOUNDS     =    24067938.0000       HEAD DEP BOUNDS     =           0.2868
      STREAM LEAKAGE     =  1034100416.0000        STREAM LEAKAGE     =          11.9818
        UZF RECHARGE     =       73223.9531          UZF RECHARGE     =           0.0000
               GW ET     =           0.0000                 GW ET     =           0.0000
     SURFACE LEAKAGE     =           0.0000       SURFACE LEAKAGE     =           0.0000
           AG WELLS      =           0.0000             AG WELLS      =           0.0000

                TOTAL IN =  2559184128.0000                  TOTAL IN =          59.0227

          OUT:                                     OUT:
          ----                                     ----
             STORAGE     =   466984192.0000               STORAGE     =       6.4497E-02
       CONSTANT HEAD     =           0.0000         CONSTANT HEAD     =           0.0000
     HEAD DEP BOUNDS     =    24672100.0000       HEAD DEP BOUNDS     =           0.2891
      STREAM LEAKAGE     =   867741760.0000        STREAM LEAKAGE     =           9.9490
        UZF RECHARGE     =           0.0000          UZF RECHARGE     =           0.0000
               GW ET     =    17603406.0000                 GW ET     =           0.0000
     SURFACE LEAKAGE     =           0.0000       SURFACE LEAKAGE     =           0.0000
           AG WELLS      =  1182185984.0000             AG WELLS      =          48.7200

               TOTAL OUT =  2559187456.0000                 TOTAL OUT =          59.0227

                IN - OUT =       -3328.0000                  IN - OUT =       2.6703E-05

     PERCENT DISCREPANCY =          -0.00         PERCENT DISCREPANCY =           0.00






         TIME SUMMARY AT END OF TIME STEP   30 IN STRESS PERIOD   33
                    SECONDS     MINUTES      HOURS       DAYS        YEARS
                    -----------------------------------------------------------
   TIME STEP LENGTH  87667.      1461.1      24.352      1.0147     2.77799E-03
 STRESS PERIOD TIME 2.63000E+06  43833.      730.56      30.440     8.33397E-02
         TOTAL TIME 8.42463E+07 1.40410E+06  23402.      975.07      2.6696    
1
1
                            STRESS PERIOD NO.   34, LENGTH =   2630000.    
                            -----------------------------------------------

                              NUMBER OF TIME STEPS =    30

                               MULTIPLIER FOR DELT =     1.000

                            INITIAL TIME STEP SIZE =   87666.66    

 REUSING NON-PARAMETER GHB CELLS FROM LAST STRESS PERIOD

      2 GHB CELLS

 REUSING STREAM SEGMENT DATA FROM LAST STRESS PERIOD



            AREAL INFILTRATION RATE
 READING ON UNIT   19 WITH FORMAT: (FREE)              

            1           2           3           4           5           6           7           8           9          10
 ........................................................................................................................
   1   1.0000E-10  2.0000E-10   0.000       0.000       0.000       0.000       0.000       0.000       0.000       0.000    
   2   2.0000E-10  1.0000E-10  2.0000E-10   0.000       0.000      8.0000E-10  8.0000E-10  5.0000E-10   0.000       0.000    
   3    0.000      5.0000E-10  1.0000E-10  1.0000E-10  8.0000E-10  8.0000E-10  5.0000E-10  5.0000E-10   0.000       0.000    
   4   8.0000E-10  5.0000E-10  1.0000E-10  1.0000E-10  1.0000E-10  1.0000E-10  1.0000E-10  1.0000E-10  2.0000E-10   0.000    
   5   8.0000E-10  5.0000E-10  1.0000E-10  1.0000E-10  1.0000E-10  1.0000E-10  1.0000E-10  1.0000E-10  1.0000E-10  1.0000E-10
   6   8.0000E-10  5.0000E-10  5.0000E-10  2.0000E-10  2.0000E-10  1.0000E-10  1.0000E-10  1.0000E-10  1.0000E-10  5.0000E-10
   7   8.0000E-10  5.0000E-10  5.0000E-10  2.0000E-10  2.0000E-10  1.0000E-10  1.0000E-10  2.0000E-10  2.0000E-10   0.000    
   8    0.000      5.0000E-10  5.0000E-10  2.0000E-10  2.0000E-10  1.0000E-10  1.0000E-10  2.0000E-10  5.0000E-10   0.000    
   9    0.000      5.0000E-10  5.0000E-10  2.0000E-10  2.0000E-10  1.0000E-10  1.0000E-10  2.0000E-10  5.0000E-10   0.000    
  10    0.000      5.0000E-10  5.0000E-10  2.0000E-10  2.0000E-10  1.0000E-10  1.0000E-10  2.0000E-10  5.0000E-10  8.0000E-10
  11    0.000      1.0000E-10  1.0000E-10  1.0000E-10  1.0000E-10  1.0000E-10  1.0000E-10  2.0000E-10  5.0000E-10   0.000    
  12   1.0000E-10  1.0000E-10  1.0000E-10  1.0000E-10  1.0000E-10  1.0000E-10  1.0000E-10  1.0000E-10  2.0000E-10   0.000    
  13   1.0000E-10  1.0000E-10  2.0000E-10  2.0000E-10  2.0000E-10  2.0000E-10  2.0000E-10  1.0000E-10  1.0000E-10   0.000    
  14    0.000      2.0000E-10  5.0000E-10  5.0000E-10  5.0000E-10  5.0000E-10  5.0000E-10  2.0000E-10  1.0000E-10   0.000    
  15    0.000       0.000      8.0000E-10  8.0000E-10  8.0000E-10  8.0000E-10   0.000       0.000       0.000       0.000    

                  ET RATE =  7.500000E-08

 USING ET EXTINCTION DEPTH FROM PREVIOUS STRESS PERIOD. CURRENT PERIOD IS:      34

 USING EXTINCTION WATER CONTENT FROM PREVIOUS STRESS PERIOD. CURRENT PERIOD IS:      34

 USING AIR ENTRY PRESSURE FROM PREVIOUS STRESS PERIOD. CURRENT PERIOD IS:      34

 USING ROOT PRESSURE HEAD FROM PREVIOUS STRESS PERIOD. CURRENT PERIOD IS:      34

 USING ROOT ACTIVITY FROM PREVIOUS STRESS PERIOD. CURRENT PERIOD IS:      34

 PROCESSING AG STRESS PERIOD DATA

 READING AG STRESS PERIOD DATA

 READING IRRIGATION WELL

 NO IRRPOND OR REUSING IRRPOND DATA FROM LAST STRESS PERIOD

 END PROCESSING AG STRESS PERIOD DATA OPTIONS
 
 SOLVING FOR HEAD 
                                                   Max.-Head-Change                         Max.-Flux-Residual
  Residual-Control   Outer-Iter.   Inner-Iter.     Column Row Layer    Maximum-Head-Change  Column Row Layer    Maximum-Flux-Residual          L2-NORM 
          0                 1           2             5    8     1       0.7052066546E-01       5    8    1         0.3838204696E+01      0.1006794659E+02
          0                 2           2             5    8     1      -0.6859629259E-02       5    8    1        -0.3838129286E+00      0.1006771982E+01
          0                 3           2             5    8     1       0.4671164042E-03       5    8    1         0.2686698909E-01      0.7047427719E-01
          0                 4           1             5    8     1      -0.1858699418E-04       5    8    1        -0.1098861040E-02      0.2882399829E-02

    ------------------------------------------------
       NWT REQUIRED            4 OUTER ITERATIONS 
       AND A TOTAL OF          7 INNER ITERATIONS.
    ------------------------------------------------

 NO OUTPUT CONTROL FOR STRESS PERIOD   34   TIME STEP    1
 
 SOLVING FOR HEAD 
                                                   Max.-Head-Change                         Max.-Flux-Residual
  Residual-Control   Outer-Iter.   Inner-Iter.     Column Row Layer    Maximum-Head-Change  Column Row Layer    Maximum-Flux-Residual          L2-NORM 
          0                 1           2             5    8     1       0.1023966280E+00       5    8    1         0.5539605410E+01      0.1382865018E+02
          0                 2           2             5    7     1      -0.4400336463E-01       5    8    1        -0.2423838723E+01      0.5881182772E+01
          0                 3           2             5    7     1       0.2996458392E-02       5    8    1         0.1696684875E+00      0.4116820892E+00
          0                 4           2             5    7     1      -0.1192319082E-03       5    8    1        -0.6939451634E-02      0.1683782347E-01
          0                 5           1             5    7     1       0.1470182735E-05       5    8    1         0.8794424025E-04      0.2133882537E-03

    ------------------------------------------------
       NWT REQUIRED            5 OUTER ITERATIONS 
       AND A TOTAL OF          9 INNER ITERATIONS.
    ------------------------------------------------

 NO OUTPUT CONTROL FOR STRESS PERIOD   34   TIME STEP    2
 
 SOLVING FOR HEAD 
                                                   Max.-Head-Change                         Max.-Flux-Residual
  Residual-Control   Outer-Iter.   Inner-Iter.     Column Row Layer    Maximum-Head-Change  Column Row Layer    Maximum-Flux-Residual          L2-NORM 
          0                 1           2             5    8     1       0.9945067181E-01       5    8    1         0.5376569887E+01      0.1353895922E+02
          0                 2           2             5    7     1      -0.4387192237E-01       5    8    1        -0.2407536306E+01      0.5856395469E+01
          0                 3           2             5    7     1       0.2987507227E-02       5    8    1         0.1685273192E+00      0.4099469398E+00
          0                 4           2             5    7     1      -0.1188757349E-03       5    8    1        -0.6892777778E-02      0.1676685613E-01
          0                 5           1             5    7     1       0.1465790745E-05       5    8    1         0.8735273104E-04      0.2124898103E-03

    ------------------------------------------------
       NWT REQUIRED            5 OUTER ITERATIONS 
       AND A TOTAL OF          9 INNER ITERATIONS.
    ------------------------------------------------

 NO OUTPUT CONTROL FOR STRESS PERIOD   34   TIME STEP    3
 
 SOLVING FOR HEAD 
                                                   Max.-Head-Change                         Max.-Flux-Residual
  Residual-Control   Outer-Iter.   Inner-Iter.     Column Row Layer    Maximum-Head-Change  Column Row Layer    Maximum-Flux-Residual          L2-NORM 
          0                 1           2             5    8     1       0.9668240274E-01       5    8    1         0.5223481450E+01      0.1326413848E+02
          0                 2           2             5    7     1      -0.4374229209E-01       5    8    1        -0.2392228451E+01      0.5832703657E+01
          0                 3           2             5    7     1       0.2978679496E-02       5    8    1         0.1674557698E+00      0.4082884717E+00
          0                 4           2             5    7     1      -0.1185244731E-03       5    8    1        -0.6848951331E-02      0.1669902470E-01
          0                 5           1             5    7     1       0.1461459580E-05       5    8    1         0.8679732127E-04      0.2116286455E-03

    ------------------------------------------------
       NWT REQUIRED            5 OUTER ITERATIONS 
       AND A TOTAL OF          9 INNER ITERATIONS.
    ------------------------------------------------

 NO OUTPUT CONTROL FOR STRESS PERIOD   34   TIME STEP    4
 
 SOLVING FOR HEAD 
                                                   Max.-Head-Change                         Max.-Flux-Residual
  Residual-Control   Outer-Iter.   Inner-Iter.     Column Row Layer    Maximum-Head-Change  Column Row Layer    Maximum-Flux-Residual          L2-NORM 
          0                 1           2             5    8     1       0.9407922908E-01       5    8    1         0.5079629140E+01      0.1300310896E+02
          0                 2           2             5    7     1      -0.4361468332E-01       5    8    1        -0.2377844305E+01      0.5810038421E+01
          0                 3           2             5    7     1       0.2969989463E-02       5    8    1         0.1664488792E+00      0.4067018670E+00
          0                 4           2             5    7     1      -0.1181786900E-03       5    8    1        -0.6807769464E-02      0.1663413285E-01
          0                 5           1             5    7     1       0.1457195623E-05       5    8    1         0.8627541001E-04      0.2110028117E-03

    ------------------------------------------------
       NWT REQUIRED            5 OUTER ITERATIONS 
       AND A TOTAL OF          9 INNER ITERATIONS.
    ------------------------------------------------

 NO OUTPUT CONTROL FOR STRESS PERIOD   34   TIME STEP    5
 
 SOLVING FOR HEAD 
                                                   Max.-Head-Change                         Max.-Flux-Residual
  Residual-Control   Outer-Iter.   Inner-Iter.     Column Row Layer    Maximum-Head-Change  Column Row Layer    Maximum-Flux-Residual          L2-NORM 
          0                 1           2             5    7     1       0.9252744448E-01       5    8    1         0.4944360114E+01      0.1275489015E+02
          0                 2           2             4    7     1      -0.4357388572E-01       5    8    1        -0.2364318464E+01      0.5788336991E+01
          0                 3           2             4    7     1       0.2967209984E-02       5    8    1         0.1655020696E+00      0.4051827313E+00
          0                 4           2             4    7     1      -0.1180680984E-03       5    8    1        -0.6769044885E-02      0.1657200008E-01
          0                 5           1             4    7     1       0.1455830722E-05       5    8    1         0.8578465531E-04      0.2100472139E-03

    ------------------------------------------------
       NWT REQUIRED            5 OUTER ITERATIONS 
       AND A TOTAL OF          9 INNER ITERATIONS.
    ------------------------------------------------

 NO OUTPUT CONTROL FOR STRESS PERIOD   34   TIME STEP    6
 
 SOLVING FOR HEAD 
                                                   Max.-Head-Change                         Max.-Flux-Residual
  Residual-Control   Outer-Iter.   Inner-Iter.     Column Row Layer    Maximum-Head-Change  Column Row Layer    Maximum-Flux-Residual          L2-NORM 
          0                 1           2             5    7     1       0.9126071694E-01       5    7    1         0.4835908595E+01      0.1251857514E+02
          0                 2           2             4    7     1      -0.4354280809E-01       5    7    1        -0.2353478577E+01      0.5767540774E+01
          0                 3           2             4    7     1       0.2965093276E-02       5    7    1         0.1647429829E+00      0.4037269632E+00
          0                 4           2             4    7     1      -0.1179838746E-03       5    7    1        -0.6737999586E-02      0.1651245998E-01
          0                 5           1             4    7     1       0.1454792793E-05       5    7    1         0.8539121336E-04      0.2092705948E-03

    ------------------------------------------------
       NWT REQUIRED            5 OUTER ITERATIONS 
       AND A TOTAL OF          9 INNER ITERATIONS.
    ------------------------------------------------

 NO OUTPUT CONTROL FOR STRESS PERIOD   34   TIME STEP    7
 
 SOLVING FOR HEAD 
                                                   Max.-Head-Change                         Max.-Flux-Residual
  Residual-Control   Outer-Iter.   Inner-Iter.     Column Row Layer    Maximum-Head-Change  Column Row Layer    Maximum-Flux-Residual          L2-NORM 
          0                 1           2             5    7     1       0.9001845944E-01       5    7    1         0.4770083380E+01      0.1229335731E+02
          0                 2           2             4    7     1      -0.4350814347E-01       5    7    1        -0.2346897152E+01      0.5747597261E+01
          0                 3           2             4    7     1       0.2962732342E-02       5    7    1         0.1642822663E+00      0.4023308871E+00
          0                 4           2             4    7     1      -0.1178899328E-03       5    7    1        -0.6719156327E-02      0.1645535995E-01
          0                 5           1             4    7     1       0.1453634111E-05       5    7    1         0.8515242121E-04      0.2085609954E-03

    ------------------------------------------------
       NWT REQUIRED            5 OUTER ITERATIONS 
       AND A TOTAL OF          9 INNER ITERATIONS.
    ------------------------------------------------

 NO OUTPUT CONTROL FOR STRESS PERIOD   34   TIME STEP    8
 
 SOLVING FOR HEAD 
                                                   Max.-Head-Change                         Max.-Flux-Residual
  Residual-Control   Outer-Iter.   Inner-Iter.     Column Row Layer    Maximum-Head-Change  Column Row Layer    Maximum-Flux-Residual          L2-NORM 
          0                 1           2             5    7     1       0.8880103338E-01       5    7    1         0.4705510805E+01      0.1207846359E+02
          0                 2           2             4    7     1      -0.4347018739E-01       5    7    1        -0.2340441051E+01      0.5728455844E+01
          0                 3           2             4    7     1       0.2960147304E-02       5    7    1         0.1638303241E+00      0.4009909597E+00
          0                 4           2             4    7     1      -0.1177870733E-03       5    7    1        -0.6700671926E-02      0.1640055690E-01
          0                 5           1             4    7     1       0.1452365767E-05       5    7    1         0.8491816266E-04      0.2078457587E-03

    ------------------------------------------------
       NWT REQUIRED            5 OUTER ITERATIONS 
       AND A TOTAL OF          9 INNER ITERATIONS.
    ------------------------------------------------

 NO OUTPUT CONTROL FOR STRESS PERIOD   34   TIME STEP    9
 
 SOLVING FOR HEAD 
                                                   Max.-Head-Change                         Max.-Flux-Residual
  Residual-Control   Outer-Iter.   Inner-Iter.     Column Row Layer    Maximum-Head-Change  Column Row Layer    Maximum-Flux-Residual          L2-NORM 
          0                 1           2             4    7     1       0.8824465726E-01       5    7    1         0.4642250167E+01      0.1187321074E+02
          0                 2           2             4    7     1      -0.4342923577E-01       5    7    1        -0.2334115971E+01      0.5710071063E+01
          0                 3           2             4    7     1       0.2957358311E-02       5    7    1         0.1633875549E+00      0.3997039984E+00
          0                 4           2             4    7     1      -0.1176760985E-03       5    7    1        -0.6682562695E-02      0.1634792015E-01
          0                 5           1             4    7     1       0.1450996946E-05       5    7    1         0.8468867031E-04      0.2071812508E-03

    ------------------------------------------------
       NWT REQUIRED            5 OUTER ITERATIONS 
       AND A TOTAL OF          9 INNER ITERATIONS.
    ------------------------------------------------

 NO OUTPUT CONTROL FOR STRESS PERIOD   34   TIME STEP   10
 
 SOLVING FOR HEAD 
                                                   Max.-Head-Change                         Max.-Flux-Residual
  Residual-Control   Outer-Iter.   Inner-Iter.     Column Row Layer    Maximum-Head-Change  Column Row Layer    Maximum-Flux-Residual          L2-NORM 
          0                 1           2             4    7     1       0.8779553762E-01       4    7    1         0.4593579776E+01      0.1167696913E+02
          0                 2           2             4    7     1      -0.4338556239E-01       4    7    1        -0.2329251748E+01      0.5692401542E+01
          0                 3           2             4    7     1       0.2954384004E-02       4    7    1         0.1630469430E+00      0.3984671078E+00
          0                 4           2             4    7     1      -0.1175577498E-03       4    7    1        -0.6668632198E-02      0.1629733142E-01
          0                 5           1             4    7     1       0.1449538177E-05       4    7    1         0.8451212557E-04      0.2065448154E-03

    ------------------------------------------------
       NWT REQUIRED            5 OUTER ITERATIONS 
       AND A TOTAL OF          9 INNER ITERATIONS.
    ------------------------------------------------

 NO OUTPUT CONTROL FOR STRESS PERIOD   34   TIME STEP   11
 
 SOLVING FOR HEAD 
                                                   Max.-Head-Change                         Max.-Flux-Residual
  Residual-Control   Outer-Iter.   Inner-Iter.     Column Row Layer    Maximum-Head-Change  Column Row Layer    Maximum-Flux-Residual          L2-NORM 
          0                 1           2             4    7     1       0.8732144447E-01       4    7    1         0.4570257742E+01      0.1148916688E+02
          0                 2           2             4    7     1      -0.4333945450E-01       4    7    1        -0.2326920542E+01      0.5675408117E+01
          0                 3           2             4    7     1       0.2951243943E-02       4    7    1         0.1628837399E+00      0.3972775451E+00
          0                 4           2             4    7     1      -0.1174328048E-03       4    7    1        -0.6661957259E-02      0.1624867823E-01
          0                 5           1             4    7     1       0.1447997188E-05       4    7    1         0.8442751914E-04      0.2059212697E-03

    ------------------------------------------------
       NWT REQUIRED            5 OUTER ITERATIONS 
       AND A TOTAL OF          9 INNER ITERATIONS.
    ------------------------------------------------

 NO OUTPUT CONTROL FOR STRESS PERIOD   34   TIME STEP   12
 
 SOLVING FOR HEAD 
                                                   Max.-Head-Change                         Max.-Flux-Residual
  Residual-Control   Outer-Iter.   Inner-Iter.     Column Row Layer    Maximum-Head-Change  Column Row Layer    Maximum-Flux-Residual          L2-NORM 
          0                 1           2             4    7     1       0.8682453272E-01       4    7    1         0.4545619331E+01      0.1130925904E+02
          0                 2           2             4    7     1      -0.4329112638E-01       4    7    1        -0.2324457776E+01      0.5659054360E+01
          0                 3           2             4    7     1       0.2947952716E-02       4    7    1         0.1627113293E+00      0.3961327611E+00
          0                 4           2             4    7     1      -0.1173018450E-03       4    7    1        -0.6654905716E-02      0.1620185667E-01
          0                 5           1             4    7     1       0.1446382495E-05       4    7    1         0.8433816151E-04      0.2053381293E-03

    ------------------------------------------------
       NWT REQUIRED            5 OUTER ITERATIONS 
       AND A TOTAL OF          9 INNER ITERATIONS.
    ------------------------------------------------

 NO OUTPUT CONTROL FOR STRESS PERIOD   34   TIME STEP   13
 
 SOLVING FOR HEAD 
                                                   Max.-Head-Change                         Max.-Flux-Residual
  Residual-Control   Outer-Iter.   Inner-Iter.     Column Row Layer    Maximum-Head-Change  Column Row Layer    Maximum-Flux-Residual          L2-NORM 
          0                 1           2             4    7     1       0.8630720775E-01       4    7    1         0.4519797926E+01      0.1113674489E+02
          0                 2           2             4    7     1      -0.4324080779E-01       4    7    1        -0.2321876553E+01      0.5643304997E+01
          0                 3           2             4    7     1       0.2944525970E-02       4    7    1         0.1625306282E+00      0.3950302859E+00
          0                 4           2             4    7     1      -0.1171654929E-03       4    7    1        -0.6647515120E-02      0.1615676554E-01
          0                 5           1             4    7     1       0.1444701264E-05       4    7    1         0.8424450129E-04      0.2047566057E-03

    ------------------------------------------------
       NWT REQUIRED            5 OUTER ITERATIONS 
       AND A TOTAL OF          9 INNER ITERATIONS.
    ------------------------------------------------

 NO OUTPUT CONTROL FOR STRESS PERIOD   34   TIME STEP   14
 
 SOLVING FOR HEAD 
                                                   Max.-Head-Change                         Max.-Flux-Residual
  Residual-Control   Outer-Iter.   Inner-Iter.     Column Row Layer    Maximum-Head-Change  Column Row Layer    Maximum-Flux-Residual          L2-NORM 
          0                 1           2             4    7     1       0.8577186241E-01       4    7    1         0.4492925453E+01      0.1097119784E+02
          0                 2           2             4    7     1      -0.4318873616E-01       4    7    1        -0.2319190308E+01      0.5628131317E+01
          0                 3           2             4    7     1       0.2940979870E-02       4    7    1         0.1623425770E+00      0.3939681100E+00
          0                 4           2             4    7     1      -0.1170243908E-03       4    7    1        -0.6639823857E-02      0.1611332255E-01
          0                 5           1             4    7     1       0.1442961337E-05       4    7    1         0.8414701733E-04      0.2042062488E-03

    ------------------------------------------------
       NWT REQUIRED            5 OUTER ITERATIONS 
       AND A TOTAL OF          9 INNER ITERATIONS.
    ------------------------------------------------

 NO OUTPUT CONTROL FOR STRESS PERIOD   34   TIME STEP   15
 
 SOLVING FOR HEAD 
                                                   Max.-Head-Change                         Max.-Flux-Residual
  Residual-Control   Outer-Iter.   Inner-Iter.     Column Row Layer    Maximum-Head-Change  Column Row Layer    Maximum-Flux-Residual          L2-NORM 
          0                 1           2             4    7     1       0.8522046807E-01       4    7    1         0.4465111523E+01      0.1081218482E+02
          0                 2           2             4    7     1      -0.4313509900E-01       4    7    1        -0.2316409767E+01      0.5613501433E+01
          0                 3           2             4    7     1       0.2937327183E-02       4    7    1         0.1621479263E+00      0.3929440009E+00
          0                 4           2             4    7     1      -0.1168790481E-03       4    7    1        -0.6631862701E-02      0.1607143658E-01
          0                 5           1             4    7     1       0.1441169100E-05       4    7    1         0.8404612868E-04      0.2036754117E-03

    ------------------------------------------------
       NWT REQUIRED            5 OUTER ITERATIONS 
       AND A TOTAL OF          9 INNER ITERATIONS.
    ------------------------------------------------

 NO OUTPUT CONTROL FOR STRESS PERIOD   34   TIME STEP   16
 
 SOLVING FOR HEAD 
                                                   Max.-Head-Change                         Max.-Flux-Residual
  Residual-Control   Outer-Iter.   Inner-Iter.     Column Row Layer    Maximum-Head-Change  Column Row Layer    Maximum-Flux-Residual          L2-NORM 
          0                 1           2             4    7     1       0.8465499334E-01       4    7    1         0.4436465562E+01      0.1065932695E+02
          0                 2           2             4    7     1      -0.4308009022E-01       4    7    1        -0.2313545993E+01      0.5599390774E+01
          0                 3           2             4    7     1       0.2933581113E-02       4    7    1         0.1619474506E+00      0.3919562390E+00
          0                 4           2             4    7     1      -0.1167299897E-03       4    7    1        -0.6623663303E-02      0.1603104403E-01
          0                 5           1             4    7     1       0.1439331385E-05       4    7    1         0.8394222618E-04      0.2037241056E-03

    ------------------------------------------------
       NWT REQUIRED            5 OUTER ITERATIONS 
       AND A TOTAL OF          9 INNER ITERATIONS.
    ------------------------------------------------

 NO OUTPUT CONTROL FOR STRESS PERIOD   34   TIME STEP   17
 
 SOLVING FOR HEAD 
                                                   Max.-Head-Change                         Max.-Flux-Residual
  Residual-Control   Outer-Iter.   Inner-Iter.     Column Row Layer    Maximum-Head-Change  Column Row Layer    Maximum-Flux-Residual          L2-NORM 
          0                 1           2             4    7     1       0.8407714790E-01       4    7    1         0.4407082403E+01      0.1051227257E+02
          0                 2           2             4    7     1      -0.4302387629E-01       4    7    1        -0.2310608473E+01      0.5585771646E+01
          0                 3           2             4    7     1       0.2929752993E-02       4    7    1         0.1617418138E+00      0.3910028846E+00
          0                 4           2             4    7     1      -0.1165776654E-03       4    7    1        -0.6615252775E-02      0.1599204544E-01
          0                 5           1             4    7     1       0.1437452784E-05       4    7    1         0.8383561885E-04      0.2026820896E-03

    ------------------------------------------------
       NWT REQUIRED            5 OUTER ITERATIONS 
       AND A TOTAL OF          9 INNER ITERATIONS.
    ------------------------------------------------

 NO OUTPUT CONTROL FOR STRESS PERIOD   34   TIME STEP   18
 
 SOLVING FOR HEAD 
                                                   Max.-Head-Change                         Max.-Flux-Residual
  Residual-Control   Outer-Iter.   Inner-Iter.     Column Row Layer    Maximum-Head-Change  Column Row Layer    Maximum-Flux-Residual          L2-NORM 
          0                 1           2             4    7     1       0.8348878167E-01       4    7    1         0.4377065136E+01      0.1037068616E+02
          0                 2           2             4    7     1      -0.4296663954E-01       4    7    1        -0.2307607637E+01      0.5572620952E+01
          0                 3           2             4    7     1       0.2925855240E-02       4    7    1         0.1615317459E+00      0.3900823225E+00
          0                 4           2             4    7     1      -0.1164225714E-03       4    7    1        -0.6606661045E-02      0.1595439402E-01
          0                 5           1             4    7     1       0.1435540691E-05       4    7    1         0.8372675529E-04      0.2021931562E-03

    ------------------------------------------------
       NWT REQUIRED            5 OUTER ITERATIONS 
       AND A TOTAL OF          9 INNER ITERATIONS.
    ------------------------------------------------

 NO OUTPUT CONTROL FOR STRESS PERIOD   34   TIME STEP   19
 
 SOLVING FOR HEAD 
                                                   Max.-Head-Change                         Max.-Flux-Residual
  Residual-Control   Outer-Iter.   Inner-Iter.     Column Row Layer    Maximum-Head-Change  Column Row Layer    Maximum-Flux-Residual          L2-NORM 
          0                 1           2             4    7     1       0.8289135944E-01       4    7    1         0.4346495218E+01      0.1023426347E+02
          0                 2           2             4    7     1      -0.4290851817E-01       4    7    1        -0.2304551395E+01      0.5559915685E+01
          0                 3           2             4    7     1       0.2921897264E-02       4    7    1         0.1613178006E+00      0.3891929408E+00
          0                 4           2             4    7     1      -0.1162650804E-03       4    7    1        -0.6597910694E-02      0.1591801793E-01
          0                 5           1             4    7     1       0.1433598801E-05       4    7    1         0.8361586856E-04      0.2017312040E-03

    ------------------------------------------------
       NWT REQUIRED            5 OUTER ITERATIONS 
       AND A TOTAL OF          9 INNER ITERATIONS.
    ------------------------------------------------

 NO OUTPUT CONTROL FOR STRESS PERIOD   34   TIME STEP   20
 
 SOLVING FOR HEAD 
                                                   Max.-Head-Change                         Max.-Flux-Residual
  Residual-Control   Outer-Iter.   Inner-Iter.     Column Row Layer    Maximum-Head-Change  Column Row Layer    Maximum-Flux-Residual          L2-NORM 
          0                 1           2             4    7     1       0.8228637077E-01       4    7    1         0.4315455811E+01      0.1010272548E+02
          0                 2           2             4    7     1      -0.4284965944E-01       4    7    1        -0.2301448183E+01      0.5547635552E+01
          0                 3           2             4    7     1       0.2917889090E-02       4    7    1         0.1611005683E+00      0.3883333196E+00
          0                 4           2             4    7     1      -0.1161055918E-03       4    7    1        -0.6589025928E-02      0.1588285960E-01
          0                 5           1             4    7     1       0.1431631933E-05       4    7    1         0.8350325834E-04      0.2012858458E-03

    ------------------------------------------------
       NWT REQUIRED            5 OUTER ITERATIONS 
       AND A TOTAL OF          9 INNER ITERATIONS.
    ------------------------------------------------

 NO OUTPUT CONTROL FOR STRESS PERIOD   34   TIME STEP   21
 
 SOLVING FOR HEAD 
                                                   Max.-Head-Change                         Max.-Flux-Residual
  Residual-Control   Outer-Iter.   Inner-Iter.     Column Row Layer    Maximum-Head-Change  Column Row Layer    Maximum-Flux-Residual          L2-NORM 
          0                 1           2             4    7     1       0.8167519423E-01       4    7    1         0.4284024143E+01      0.9975803698E+01
          0                 2           2             4    7     1      -0.4279019758E-01       4    7    1        -0.2298305726E+01      0.5535760003E+01
          0                 3           2             4    7     1       0.2913839857E-02       4    7    1         0.1608805898E+00      0.3875020197E+00
          0                 4           2             4    7     1      -0.1159444695E-03       4    7    1        -0.6580028816E-02      0.1584885934E-01
          0                 5           1             4    7     1       0.1429645350E-05       4    7    1         0.8338923726E-04      0.2008541598E-03

    ------------------------------------------------
       NWT REQUIRED            5 OUTER ITERATIONS 
       AND A TOTAL OF          9 INNER ITERATIONS.
    ------------------------------------------------

 NO OUTPUT CONTROL FOR STRESS PERIOD   34   TIME STEP   22
 
 SOLVING FOR HEAD 
                                                   Max.-Head-Change                         Max.-Flux-Residual
  Residual-Control   Outer-Iter.   Inner-Iter.     Column Row Layer    Maximum-Head-Change  Column Row Layer    Maximum-Flux-Residual          L2-NORM 
          0                 1           2             4    7     1       0.8105911272E-01       4    7    1         0.4252271684E+01      0.9853256727E+01
          0                 2           2             4    7     1      -0.4273025750E-01       4    7    1        -0.2295131173E+01      0.5524270921E+01
          0                 3           2             4    7     1       0.2909758072E-02       4    7    1         0.1606583653E+00      0.3866977732E+00
          0                 4           2             4    7     1      -0.1157820517E-03       4    7    1        -0.6570939842E-02      0.1581596573E-01
          0                 5           1             4    7     1       0.1427642637E-05       4    7    1         0.8327404930E-04      0.2004380081E-03

    ------------------------------------------------
       NWT REQUIRED            5 OUTER ITERATIONS 
       AND A TOTAL OF          9 INNER ITERATIONS.
    ------------------------------------------------

 NO OUTPUT CONTROL FOR STRESS PERIOD   34   TIME STEP   23
 
 SOLVING FOR HEAD 
                                                   Max.-Head-Change                         Max.-Flux-Residual
  Residual-Control   Outer-Iter.   Inner-Iter.     Column Row Layer    Maximum-Head-Change  Column Row Layer    Maximum-Flux-Residual          L2-NORM 
          0                 1           2             4    7     1       0.8043931504E-01       4    7    1         0.4220264945E+01      0.9734866612E+01
          0                 2           2             4    7     1      -0.4266995496E-01       4    7    1        -0.2291931177E+01      0.5513151376E+01
          0                 3           2             4    7     1       0.2905651617E-02       4    7    1         0.1604343606E+00      0.3859193958E+00
          0                 4           2             4    7     1      -0.1156186525E-03       4    7    1        -0.6561778060E-02      0.1578413036E-01
          0                 5           1             4    7     1       0.1425628162E-05       4    7    1         0.8315795185E-04      0.2000342716E-03

    ------------------------------------------------
       NWT REQUIRED            5 OUTER ITERATIONS 
       AND A TOTAL OF          9 INNER ITERATIONS.
    ------------------------------------------------

 NO OUTPUT CONTROL FOR STRESS PERIOD   34   TIME STEP   24
 
 SOLVING FOR HEAD 
                                                   Max.-Head-Change                         Max.-Flux-Residual
  Residual-Control   Outer-Iter.   Inner-Iter.     Column Row Layer    Maximum-Head-Change  Column Row Layer    Maximum-Flux-Residual          L2-NORM 
          0                 1           2             4    7     1       0.7981676460E-01       4    7    1         0.4188058328E+01      0.9620413267E+01
          0                 2           2             4    7     1      -0.4260938377E-01       4    7    1        -0.2288711178E+01      0.5502384174E+01
          0                 3           2             4    7     1       0.2901526878E-02       4    7    1         0.1602089563E+00      0.3851654432E+00
          0                 4           2             4    7     1      -0.1154545256E-03       4    7    1        -0.6552559034E-02      0.1575327057E-01
          0                 5           1             4    7     1       0.1423604278E-05       4    7    1         0.8304111770E-04      0.1996411369E-03

    ------------------------------------------------
       NWT REQUIRED            5 OUTER ITERATIONS 
       AND A TOTAL OF          9 INNER ITERATIONS.
    ------------------------------------------------

 NO OUTPUT CONTROL FOR STRESS PERIOD   34   TIME STEP   25
 
 SOLVING FOR HEAD 
                                                   Max.-Head-Change                         Max.-Flux-Residual
  Residual-Control   Outer-Iter.   Inner-Iter.     Column Row Layer    Maximum-Head-Change  Column Row Layer    Maximum-Flux-Residual          L2-NORM 
          0                 1           2             4    7     1       0.7919274716E-01       4    7    1         0.4155723473E+01      0.9509710330E+01
          0                 2           2             4    7     1      -0.4254866912E-01       4    7    1        -0.2285478343E+01      0.5491954724E+01
          0                 3           2             4    7     1       0.2897392380E-02       4    7    1         0.1599826542E+00      0.3844347204E+00
          0                 4           2             4    7     1      -0.1152900104E-03       4    7    1        -0.6543303288E-02      0.1572332303E-01
          0                 5           1             4    7     1       0.1421575689E-05       4    7    1         0.8292381585E-04      0.1992586700E-03

    ------------------------------------------------
       NWT REQUIRED            5 OUTER ITERATIONS 
       AND A TOTAL OF          9 INNER ITERATIONS.
    ------------------------------------------------

 NO OUTPUT CONTROL FOR STRESS PERIOD   34   TIME STEP   26
 
 SOLVING FOR HEAD 
                                                   Max.-Head-Change                         Max.-Flux-Residual
  Residual-Control   Outer-Iter.   Inner-Iter.     Column Row Layer    Maximum-Head-Change  Column Row Layer    Maximum-Flux-Residual          L2-NORM 
          0                 1           2             4    7     1       0.7856792346E-01       4    7    1         0.4123298114E+01      0.9402564296E+01
          0                 2           2             4    7     1      -0.4248787535E-01       4    7    1        -0.2282236446E+01      0.5481847435E+01
          0                 3           2             4    7     1       0.2893252504E-02       4    7    1         0.1597557183E+00      0.3837266290E+00
          0                 4           2             4    7     1      -0.1151252814E-03       4    7    1        -0.6534021621E-02      0.1569431136E-01
          0                 5           1             4    7     1       0.1419544748E-05       4    7    1         0.8280619568E-04      0.1988885567E-03

    ------------------------------------------------
       NWT REQUIRED            5 OUTER ITERATIONS 
       AND A TOTAL OF          9 INNER ITERATIONS.
    ------------------------------------------------

 NO OUTPUT CONTROL FOR STRESS PERIOD   34   TIME STEP   27
 
 SOLVING FOR HEAD 
                                                   Max.-Head-Change                         Max.-Flux-Residual
  Residual-Control   Outer-Iter.   Inner-Iter.     Column Row Layer    Maximum-Head-Change  Column Row Layer    Maximum-Flux-Residual          L2-NORM 
          0                 1           2             4    7     1       0.7794316176E-01       4    7    1         0.4090830968E+01      0.9298814579E+01
          0                 2           2             4    7     1      -0.4242708701E-01       4    7    1        -0.2278990360E+01      0.5472049468E+01
          0                 3           2             4    7     1       0.2889113005E-02       4    7    1         0.1595284898E+00      0.3830402605E+00
          0                 4           2             4    7     1      -0.1149605666E-03       4    7    1        -0.6524727954E-02      0.1566619688E-01
          0                 5           1             4    7     1       0.1417513359E-05       4    7    1         0.8268840429E-04      0.1985315186E-03

    ------------------------------------------------
       NWT REQUIRED            5 OUTER ITERATIONS 
       AND A TOTAL OF          9 INNER ITERATIONS.
    ------------------------------------------------

 NO OUTPUT CONTROL FOR STRESS PERIOD   34   TIME STEP   28
 
 SOLVING FOR HEAD 
                                                   Max.-Head-Change                         Max.-Flux-Residual
  Residual-Control   Outer-Iter.   Inner-Iter.     Column Row Layer    Maximum-Head-Change  Column Row Layer    Maximum-Flux-Residual          L2-NORM 
          0                 1           2             4    7     1       0.7731951902E-01       4    7    1         0.4058381516E+01      0.9198295932E+01
          0                 2           2             4    7     1      -0.4236640702E-01       4    7    1        -0.2275746033E+01      0.5462547190E+01
          0                 3           2             4    7     1       0.2884980892E-02       4    7    1         0.1593013849E+00      0.3823746537E+00
          0                 4           2             4    7     1      -0.1147961462E-03       4    7    1        -0.6515439364E-02      0.1563893960E-01
          0                 5           1             4    7     1       0.1415486003E-05       4    7    1         0.8257068816E-04      0.1981876715E-03

    ------------------------------------------------
       NWT REQUIRED            5 OUTER ITERATIONS 
       AND A TOTAL OF          9 INNER ITERATIONS.
    ------------------------------------------------

 NO OUTPUT CONTROL FOR STRESS PERIOD   34   TIME STEP   29
 
 SOLVING FOR HEAD 
                                                   Max.-Head-Change                         Max.-Flux-Residual
  Residual-Control   Outer-Iter.   Inner-Iter.     Column Row Layer    Maximum-Head-Change  Column Row Layer    Maximum-Flux-Residual          L2-NORM 
          0                 1           2             4    7     1       0.7669744689E-01       4    7    1         0.4025975623E+01      0.9100852109E+01
          0                 2           2             4    7     1      -0.4230587936E-01       4    7    1        -0.2272506054E+01      0.5453327970E+01
          0                 3           2             4    7     1       0.2880859160E-02       4    7    1         0.1590745848E+00      0.3817285780E+00
          0                 4           2             4    7     1      -0.1146321388E-03       4    7    1        -0.6506163245E-02      0.1561245545E-01
          0                 5           1             4    7     1       0.1413464023E-05       4    7    1         0.8245313552E-04      0.1978506784E-03

    ------------------------------------------------
       NWT REQUIRED            5 OUTER ITERATIONS 
       AND A TOTAL OF          9 INNER ITERATIONS.
    ------------------------------------------------

 NO OUTPUT CONTROL FOR STRESS PERIOD   34   TIME STEP   30



 STREAM LISTING     PERIOD     34   STEP       30

 LAYER ROW COL. STREAM  RCH.  FLOW INTO     FLOW TO   FLOW OUT OF   OVRLND.     DIRECT     STREAM       STREAM     STREAM     STREAM   STREAMBED  STREAMBED
                SEG.NO.  NO.  STRM. RCH.    AQUIFER    STRM. RCH.    RUNOFF     PRECIP       ET          HEAD       DEPTH      WIDTH   CONDCTNC.   GRADIENT

   1    1    1     1     1    1.9000E+01  2.1427E-01   1.8786E+01  0.000E+00  0.000E+00  0.000E+00  1.09413E+03  1.082E+00  1.166E+01  5.249E-02  1.361E+00
   1    2    2     1     2    1.8786E+01  3.3054E-01   1.8455E+01  0.000E+00  0.000E+00  0.000E+00  1.08914E+03  1.077E+00  1.158E+01  8.107E-02  1.359E+00
   1    3    3     1     3    1.8455E+01  2.8064E-01   1.8175E+01  0.000E+00  0.000E+00  0.000E+00  1.08349E+03  1.072E+00  1.149E+01  6.892E-02  1.357E+00
   1    3    4     1     4    1.8175E+01  2.5740E-01   1.7917E+01  0.000E+00  0.000E+00  0.000E+00  1.07848E+03  1.068E+00  1.140E+01  6.328E-02  1.356E+00
   1    4    5     2     1    1.5917E+01  3.0542E-01   1.5612E+01  0.000E+00  0.000E+00  0.000E+00  1.07285E+03  9.157E-01  1.200E+01  7.800E-02  1.305E+00
   1    5    6     2     2    1.5612E+01  2.3438E-01   1.5377E+01  0.000E+00  0.000E+00  0.000E+00  1.06742E+03  9.063E-01  1.200E+01  6.000E-02  1.302E+00
   1    6    6     2     3    1.5377E+01  2.3388E-01   1.5143E+01  0.000E+00  0.000E+00  0.000E+00  1.06269E+03  8.980E-01  1.200E+01  6.000E-02  1.299E+00
   1    7    6     2     4    1.5143E+01  2.3338E-01   1.4910E+01  0.000E+00  0.000E+00  0.000E+00  1.05797E+03  8.897E-01  1.200E+01  6.000E-02  1.297E+00
   1    8    6     2     5    1.4910E+01  2.3289E-01   1.4677E+01  0.000E+00  0.000E+00  0.000E+00  1.05324E+03  8.814E-01  1.200E+01  6.000E-02  1.294E+00
   1    3    5     3     1    2.0000E+00  2.8252E-01   1.7175E+00  0.000E+00  0.000E+00  0.000E+00  1.07555E+03  1.909E+00  9.636E+00  7.227E-02  1.955E+00
   1    3    6     3     2    1.7175E+00  2.4905E-01   1.4684E+00  0.000E+00  0.000E+00  0.000E+00  1.07264E+03  1.727E+00  8.909E+00  6.682E-02  1.864E+00
   1    3    7     3     3    1.4684E+00  1.9718E-01   1.2712E+00  0.000E+00  0.000E+00  0.000E+00  1.06987E+03  1.555E+00  8.218E+00  5.547E-02  1.777E+00
   1    4    8     3     4    1.2712E+00  2.2567E-01   1.0456E+00  0.000E+00  0.000E+00  0.000E+00  1.06682E+03  1.364E+00  7.455E+00  6.709E-02  1.682E+00
   1    5    8     3     5    1.0456E+00  1.5790E-01   8.8768E-01  0.000E+00  0.000E+00  0.000E+00  1.06362E+03  1.164E+00  6.655E+00  4.991E-02  1.582E+00
   1    6    8     3     6    8.8768E-01  5.5980E-02   8.3170E-01  0.000E+00  0.000E+00  0.000E+00  1.06158E+03  1.036E+00  6.145E+00  1.844E-02  1.518E+00
   1    5   10     4     1    1.0000E+01  9.0919E-02   9.9091E+00  0.000E+00  0.000E+00  0.000E+00  1.07836E+03  6.368E-01  1.000E+01  2.500E-02  1.212E+00
   1    5    9     4     2    9.9091E+00  1.8158E-01   9.7275E+00  0.000E+00  0.000E+00  0.000E+00  1.07154E+03  6.315E-01  1.000E+01  5.000E-02  1.211E+00
   1    6    8     4     3    9.7275E+00  1.2689E-01   9.6006E+00  0.000E+00  0.000E+00  0.000E+00  1.06381E+03  6.256E-01  1.000E+01  3.500E-02  1.209E+00
   1    6    8     5     1    1.0432E+01  2.2686E-01   1.0205E+01  0.000E+00  0.000E+00  0.000E+00  1.05868E+03  6.790E-01  1.542E+01  6.166E-02  1.226E+00
   1    7    7     5     2    1.0205E+01  2.7894E-01   9.9265E+00  0.000E+00  0.000E+00  0.000E+00  1.05417E+03  6.732E-01  1.519E+01  7.594E-02  1.224E+00
   1    8    7     5     3    9.9265E+00  1.9221E-01   9.7343E+00  0.000E+00  0.000E+00  0.000E+00  1.04992E+03  6.676E-01  1.497E+01  5.241E-02  1.223E+00
   1    8    6     5     4    9.7343E+00  1.3577E-01   9.5985E+00  0.000E+00  0.000E+00  0.000E+00  1.04691E+03  6.637E-01  1.482E+01  3.706E-02  1.221E+00
   1    9    6     6     1    2.4276E+01  2.5176E-01   2.4024E+01  0.000E+00  0.000E+00  0.000E+00  1.04392E+03  1.196E+00  1.200E+01  6.000E-02  1.399E+00
   1   10    7     6     2    2.4024E+01  2.5131E-01   2.3773E+01  0.000E+00  0.000E+00  0.000E+00  1.03937E+03  1.188E+00  1.200E+01  6.000E-02  1.396E+00
   1   11    7     6     3    2.3773E+01  2.5086E-01   2.3522E+01  0.000E+00  0.000E+00  0.000E+00  1.03482E+03  1.181E+00  1.200E+01  6.000E-02  1.394E+00
   1   12    7     6     4    2.3522E+01  2.5041E-01   2.3271E+01  0.000E+00  0.000E+00  0.000E+00  1.03026E+03  1.173E+00  1.200E+01  6.000E-02  1.391E+00
   1   13    7     6     5    2.3271E+01  7.2290E-03   2.3264E+01  0.000E+00  0.000E+00  0.000E+00  1.02708E+03  1.170E+00  1.200E+01  2.400E-02  1.004E-01
   1   14    9     7     1    1.5000E+02  1.3536E+00   1.4865E+02  0.000E+00  0.000E+00  0.000E+00  1.03987E+03  2.288E+00  5.529E+01  5.593E-01  8.067E-01
   1   13    8     7     2    1.4865E+02  1.9193E+00   1.4673E+02  0.000E+00  0.000E+00  0.000E+00  1.03478E+03  2.279E+00  5.526E+01  6.148E-01  1.041E+00
   1   13    7     7     3    1.4673E+02  1.6257E+00   1.4510E+02  0.000E+00  0.000E+00  0.000E+00  1.02969E+03  2.270E+00  5.521E+01  5.584E-01  9.705E-01
   1   13    6     8     1    1.6837E+02  1.0650E+00   1.6730E+02  0.000E+00  0.000E+00  0.000E+00  1.02481E+03  2.938E+00  4.260E+01  4.341E-01  8.177E-01
   1   13    5     8     2    1.6730E+02  3.0959E-01   1.6699E+02  0.000E+00  0.000E+00  0.000E+00  1.01856E+03  2.934E+00  4.254E+01  4.335E-01  2.381E-01
   1   13    4     8     3    1.6699E+02 -1.9858E+00   1.6898E+02  0.000E+00  0.000E+00  0.000E+00  1.01231E+03  2.939E+00  4.262E+01  4.343E+00 -1.524E-01
   1   13    3     8     4    1.6898E+02 -3.4310E+00   1.7241E+02  0.000E+00  0.000E+00  0.000E+00  1.00608E+03  2.957E+00  4.287E+01  4.369E+00 -2.618E-01
   1   13    2     8     5    1.7241E+02 -2.5235E+00   1.7493E+02  0.000E+00  0.000E+00  0.000E+00  9.99851E+02  2.976E+00  4.315E+01  4.397E+00 -1.913E-01
   1   13    1     8     6    1.7493E+02 -1.9688E+00   1.7690E+02  0.000E+00  0.000E+00  0.000E+00  9.94865E+02  2.990E+00  4.336E+01  2.651E+00 -2.475E-01





UNSATURATED ZONE PACKAGE VOLUMETRIC BUDGET FOR  TIME STEP    30 STRESS PERIOD   34
  ------------------------------------------------------------------------------



     CUMULATIVE VOLUMES      L**3       RATES FOR THIS TIME STEP      L**3/T
     ------------------                 ------------------------

           IN:                                      IN:
           ---                                      ---
        INFILTRATION =  1285327626.3430          INFILTRATION =          12.0669

          OUT:                                     OUT:
          ----                                     ----
              UZF ET =  1284488697.6209                UZF ET =          12.0675
        UZF RECHARGE =       73224.0000          UZF RECHARGE =       0.0000E+00

            IN - OUT =      765704.7221              IN - OUT =      -5.7364E-04

          STORAGE:                                 STORAGE:
          --------                                 --------
      STORAGE CHANGE =      765696.2556        STORAGE CHANGE =      -5.7448E-04

 PERCENT DISCREPANCY IS DIFFERENCE BETWEEN IN-OUT MINUS CHANGE IN STORAGE
 DIVIDED BY THE AVERAGE OF IN AND OUT TIMES 100

 PERCENT DISCREPANCY =           0.00     PERCENT DISCREPANCY =           0.00






1
  VOLUMETRIC BUDGET FOR AGRICULTURAL FIELDS AT  END OF TIME STEP   30, STRESS PERIOD  34
  ------------------------------------------------------------------------------

     CUMULATIVE VOLUMES      L**3       RATES FOR THIS TIME STEP      L**3/T
     ------------------                 ------------------------

           IN:                                      IN:
           ---                                      ---
               AG WELLS  =  1211695232.0000                 AG WELLS  =          11.2194
      DIVERSION SEGMENTS =           0.0000        DIVERSION SEGMENTS =           0.0000
       IRRIGATION PONDS  =           0.0000         IRRIGATION PONDS  =           0.0000
           GW IRRIGATION =           0.0000             GW IRRIGATION =           0.0000
           SW IRRIGATION =           0.0000             SW IRRIGATION =           0.0000
        SYSTEM LOSSES GW =           0.0000          SYSTEM LOSSES GW =           0.0000
        SYSTEM LOSSES SW =           0.0000          SYSTEM LOSSES SW =           0.0000

                TOTAL IN =  1211695232.0000                  TOTAL IN =          11.2194

          OUT:                                     OUT:
          ----                                     ----
               AG WELLS  =           0.0000                 AG WELLS  =           0.0000
      DIVERSION SEGMENTS =           0.0000        DIVERSION SEGMENTS =           0.0000
       IRRIGATION PONDS  =           0.0000         IRRIGATION PONDS  =           0.0000
           GW IRRIGATION =  1211695232.0000             GW IRRIGATION =          11.2194
           SW IRRIGATION =           0.0000             SW IRRIGATION =           0.0000
        SYSTEM LOSSES GW =           0.0000          SYSTEM LOSSES GW =           0.0000
        SYSTEM LOSSES SW =           0.0000          SYSTEM LOSSES SW =           0.0000

               TOTAL OUT =  1211695232.0000                 TOTAL OUT =          11.2194

                IN - OUT =           0.0000                  IN - OUT =           0.0000

     PERCENT DISCREPANCY =           0.00         PERCENT DISCREPANCY =           0.00



1
  VOLUMETRIC BUDGET FOR ENTIRE MODEL AT END OF TIME STEP   30, STRESS PERIOD  34
  ------------------------------------------------------------------------------

     CUMULATIVE VOLUMES      L**3       RATES FOR THIS TIME STEP      L**3/T
     ------------------                 ------------------------

           IN:                                      IN:
           ---                                      ---
             STORAGE     =  1562248704.0000               STORAGE     =          18.9536
       CONSTANT HEAD     =           0.0000         CONSTANT HEAD     =           0.0000
     HEAD DEP BOUNDS     =    24822492.0000       HEAD DEP BOUNDS     =           0.2870
      STREAM LEAKAGE     =  1065648576.0000        STREAM LEAKAGE     =          12.0091
        UZF RECHARGE     =       73223.9531          UZF RECHARGE     =           0.0000
               GW ET     =           0.0000                 GW ET     =           0.0000
     SURFACE LEAKAGE     =           0.0000       SURFACE LEAKAGE     =           0.0000
           AG WELLS      =           0.0000             AG WELLS      =           0.0000

                TOTAL IN =  2652793088.0000                  TOTAL IN =          31.2497

          OUT:                                     OUT:
          ----                                     ----
             STORAGE     =   504207552.0000               STORAGE     =           9.8321
       CONSTANT HEAD     =           0.0000         CONSTANT HEAD     =           0.0000
     HEAD DEP BOUNDS     =    25432470.0000       HEAD DEP BOUNDS     =           0.2891
      STREAM LEAKAGE     =   893857152.0000        STREAM LEAKAGE     =           9.9091
        UZF RECHARGE     =           0.0000          UZF RECHARGE     =           0.0000
               GW ET     =    17603406.0000                 GW ET     =           0.0000
     SURFACE LEAKAGE     =           0.0000       SURFACE LEAKAGE     =           0.0000
           AG WELLS      =  1211695232.0000             AG WELLS      =          11.2194

               TOTAL OUT =  2652795904.0000                 TOTAL OUT =          31.2496

                IN - OUT =       -2816.0000                  IN - OUT =       1.1444E-05

     PERCENT DISCREPANCY =          -0.00         PERCENT DISCREPANCY =           0.00






         TIME SUMMARY AT END OF TIME STEP   30 IN STRESS PERIOD   34
                    SECONDS     MINUTES      HOURS       DAYS        YEARS
                    -----------------------------------------------------------
   TIME STEP LENGTH  87667.      1461.1      24.352      1.0147     2.77799E-03
 STRESS PERIOD TIME 2.63000E+06  43833.      730.56      30.440     8.33397E-02
         TOTAL TIME 8.68762E+07 1.44794E+06  24132.      1005.5      2.7529    
1
1
                            STRESS PERIOD NO.   35, LENGTH =   2630000.    
                            -----------------------------------------------

                              NUMBER OF TIME STEPS =    30

                               MULTIPLIER FOR DELT =     1.000

                            INITIAL TIME STEP SIZE =   87666.66    

 REUSING NON-PARAMETER GHB CELLS FROM LAST STRESS PERIOD

      2 GHB CELLS

 REUSING STREAM SEGMENT DATA FROM LAST STRESS PERIOD



            AREAL INFILTRATION RATE
 READING ON UNIT   19 WITH FORMAT: (FREE)              

            1           2           3           4           5           6           7           8           9          10
 ........................................................................................................................
   1   1.0000E-10  2.0000E-10   0.000       0.000       0.000       0.000       0.000       0.000       0.000       0.000    
   2   2.0000E-10  1.0000E-10  2.0000E-10   0.000       0.000      8.0000E-10  8.0000E-10  5.0000E-10   0.000       0.000    
   3    0.000      5.0000E-10  1.0000E-10  1.0000E-10  8.0000E-10  8.0000E-10  5.0000E-10  5.0000E-10   0.000       0.000    
   4   8.0000E-10  5.0000E-10  1.0000E-10  1.0000E-10  1.0000E-10  1.0000E-10  1.0000E-10  1.0000E-10  2.0000E-10   0.000    
   5   8.0000E-10  5.0000E-10  1.0000E-10  1.0000E-10  1.0000E-10  1.0000E-10  1.0000E-10  1.0000E-10  1.0000E-10  1.0000E-10
   6   8.0000E-10  5.0000E-10  5.0000E-10  2.0000E-10  2.0000E-10  1.0000E-10  1.0000E-10  1.0000E-10  1.0000E-10  5.0000E-10
   7   8.0000E-10  5.0000E-10  5.0000E-10  2.0000E-10  2.0000E-10  1.0000E-10  1.0000E-10  2.0000E-10  2.0000E-10   0.000    
   8    0.000      5.0000E-10  5.0000E-10  2.0000E-10  2.0000E-10  1.0000E-10  1.0000E-10  2.0000E-10  5.0000E-10   0.000    
   9    0.000      5.0000E-10  5.0000E-10  2.0000E-10  2.0000E-10  1.0000E-10  1.0000E-10  2.0000E-10  5.0000E-10   0.000    
  10    0.000      5.0000E-10  5.0000E-10  2.0000E-10  2.0000E-10  1.0000E-10  1.0000E-10  2.0000E-10  5.0000E-10  8.0000E-10
  11    0.000      1.0000E-10  1.0000E-10  1.0000E-10  1.0000E-10  1.0000E-10  1.0000E-10  2.0000E-10  5.0000E-10   0.000    
  12   1.0000E-10  1.0000E-10  1.0000E-10  1.0000E-10  1.0000E-10  1.0000E-10  1.0000E-10  1.0000E-10  2.0000E-10   0.000    
  13   1.0000E-10  1.0000E-10  2.0000E-10  2.0000E-10  2.0000E-10  2.0000E-10  2.0000E-10  1.0000E-10  1.0000E-10   0.000    
  14    0.000      2.0000E-10  5.0000E-10  5.0000E-10  5.0000E-10  5.0000E-10  5.0000E-10  2.0000E-10  1.0000E-10   0.000    
  15    0.000       0.000      8.0000E-10  8.0000E-10  8.0000E-10  8.0000E-10   0.000       0.000       0.000       0.000    

                  ET RATE =  5.000000E-09

 USING ET EXTINCTION DEPTH FROM PREVIOUS STRESS PERIOD. CURRENT PERIOD IS:      35

 USING EXTINCTION WATER CONTENT FROM PREVIOUS STRESS PERIOD. CURRENT PERIOD IS:      35

 USING AIR ENTRY PRESSURE FROM PREVIOUS STRESS PERIOD. CURRENT PERIOD IS:      35

 USING ROOT PRESSURE HEAD FROM PREVIOUS STRESS PERIOD. CURRENT PERIOD IS:      35

 USING ROOT ACTIVITY FROM PREVIOUS STRESS PERIOD. CURRENT PERIOD IS:      35

 PROCESSING AG STRESS PERIOD DATA

 READING AG STRESS PERIOD DATA

 READING IRRIGATION WELL

 NO IRRPOND OR REUSING IRRPOND DATA FROM LAST STRESS PERIOD

 END PROCESSING AG STRESS PERIOD DATA OPTIONS
 
 SOLVING FOR HEAD 
                                                   Max.-Head-Change                         Max.-Flux-Residual
  Residual-Control   Outer-Iter.   Inner-Iter.     Column Row Layer    Maximum-Head-Change  Column Row Layer    Maximum-Flux-Residual          L2-NORM 
          0                 1           2             4    7     1       0.7607774732E-01       4    7    1         0.3993658473E+01      0.9006358078E+01
          0                 2           2             4    7     1      -0.7400353073E-02       4    7    1        -0.3993701316E+00      0.9006357308E+00
          0                 3           2             4    7     1       0.5039359956E-03       4    7    1         0.2795588076E-01      0.6304451364E-01
          0                 4           1             4    7     1      -0.2005208742E-04       4    7    1        -0.1143397306E-02      0.2578523433E-02

    ------------------------------------------------
       NWT REQUIRED            4 OUTER ITERATIONS 
       AND A TOTAL OF          7 INNER ITERATIONS.
    ------------------------------------------------

 NO OUTPUT CONTROL FOR STRESS PERIOD   35   TIME STEP    1
 
 SOLVING FOR HEAD 
                                                   Max.-Head-Change                         Max.-Flux-Residual
  Residual-Control   Outer-Iter.   Inner-Iter.     Column Row Layer    Maximum-Head-Change  Column Row Layer    Maximum-Flux-Residual          L2-NORM 
          0                 1           2             4    7     1       0.7527855432E-01       4    7    1         0.3952773223E+01      0.8829837434E+01
          0                 2           2             4    7     1      -0.7322615462E-02       4    7    1        -0.3952817443E+00      0.8829840418E+00
          0                 3           2             4    7     1       0.4986423320E-03       4    7    1         0.2766969221E-01      0.6180890240E-01
          0                 4           1             4    7     1      -0.1984144766E-04       4    7    1        -0.1131692183E-02      0.2528054936E-02

    ------------------------------------------------
       NWT REQUIRED            4 OUTER ITERATIONS 
       AND A TOTAL OF          7 INNER ITERATIONS.
    ------------------------------------------------

 NO OUTPUT CONTROL FOR STRESS PERIOD   35   TIME STEP    2
 
 SOLVING FOR HEAD 
                                                   Max.-Head-Change                         Max.-Flux-Residual
  Residual-Control   Outer-Iter.   Inner-Iter.     Column Row Layer    Maximum-Head-Change  Column Row Layer    Maximum-Flux-Residual          L2-NORM 
          0                 1           2             4    7     1       0.7446887863E-01       4    7    1         0.3911250018E+01      0.8660037370E+01
          0                 2           2             4    7     1      -0.7243857814E-02       4    7    1        -0.3911295375E+00      0.8660043606E+00
          0                 3           2             4    7     1       0.4932792113E-03       4    7    1         0.2737903653E-01      0.6062031012E-01
          0                 4           1             4    7     1      -0.1962804414E-04       4    7    1        -0.1119804344E-02      0.2479374798E-02

    ------------------------------------------------
       NWT REQUIRED            4 OUTER ITERATIONS 
       AND A TOTAL OF          7 INNER ITERATIONS.
    ------------------------------------------------

 NO OUTPUT CONTROL FOR STRESS PERIOD   35   TIME STEP    3
 
 SOLVING FOR HEAD 
                                                   Max.-Head-Change                         Max.-Flux-Residual
  Residual-Control   Outer-Iter.   Inner-Iter.     Column Row Layer    Maximum-Head-Change  Column Row Layer    Maximum-Flux-Residual          L2-NORM 
          0                 1           2             4    7     1       0.7365042450E-01       4    7    1         0.3869183269E+01      0.8496537995E+01
          0                 2           2             4    7     1      -0.7164245939E-02       4    7    1        -0.3869229546E+00      0.8496547084E+00
          0                 3           2             4    7     1       0.4878579241E-03       4    7    1         0.2708457473E-01      0.5947583095E-01
          0                 4           1             4    7     1      -0.1941232611E-04       4    7    1        -0.1107760850E-02      0.2432563332E-02

    ------------------------------------------------
       NWT REQUIRED            4 OUTER ITERATIONS 
       AND A TOTAL OF          7 INNER ITERATIONS.
    ------------------------------------------------

 NO OUTPUT CONTROL FOR STRESS PERIOD   35   TIME STEP    4
 
 SOLVING FOR HEAD 
                                                   Max.-Head-Change                         Max.-Flux-Residual
  Residual-Control   Outer-Iter.   Inner-Iter.     Column Row Layer    Maximum-Head-Change  Column Row Layer    Maximum-Flux-Residual          L2-NORM 
          0                 1           2             4    7     1       0.7282478845E-01       4    7    1         0.3826661338E+01      0.8338975617E+01
          0                 2           2             4    7     1      -0.7083935163E-02       4    7    1        -0.3826708340E+00      0.8338987095E+00
          0                 3           2             4    7     1       0.4823890471E-03       4    7    1         0.2678692546E-01      0.5837290706E-01
          0                 4           1             4    7     1      -0.1919471433E-04       4    7    1        -0.1095586979E-02      0.2387455722E-02

    ------------------------------------------------
       NWT REQUIRED            4 OUTER ITERATIONS 
       AND A TOTAL OF          7 INNER ITERATIONS.
    ------------------------------------------------

 NO OUTPUT CONTROL FOR STRESS PERIOD   35   TIME STEP    5
 
 SOLVING FOR HEAD 
                                                   Max.-Head-Change                         Max.-Flux-Residual
  Residual-Control   Outer-Iter.   Inner-Iter.     Column Row Layer    Maximum-Head-Change  Column Row Layer    Maximum-Flux-Residual          L2-NORM 
          0                 1           2             4    7     1       0.7199346251E-01       4    7    1         0.3783767004E+01      0.8187001574E+01
          0                 2           2             4    7     1      -0.7003070649E-02       4    7    1        -0.3783814550E+00      0.8187015169E+00
          0                 3           2             4    7     1       0.4768824656E-03       4    7    1         0.2648666830E-01      0.5730910214E-01
          0                 4           1             4    7     1      -0.1897560256E-04       4    7    1        -0.1083306455E-02      0.2343945173E-02

    ------------------------------------------------
       NWT REQUIRED            4 OUTER ITERATIONS 
       AND A TOTAL OF          7 INNER ITERATIONS.
    ------------------------------------------------

 NO OUTPUT CONTROL FOR STRESS PERIOD   35   TIME STEP    6
 
 SOLVING FOR HEAD 
                                                   Max.-Head-Change                         Max.-Flux-Residual
  Residual-Control   Outer-Iter.   Inner-Iter.     Column Row Layer    Maximum-Head-Change  Column Row Layer    Maximum-Flux-Residual          L2-NORM 
          0                 1           2             4    7     1       0.7115770251E-01       4    7    1         0.3740570383E+01      0.8040290421E+01
          0                 2           2             4    7     1      -0.6921774581E-02       4    7    1        -0.3740618313E+00      0.8040305793E+00
          0                 3           2             4    7     1       0.4713464991E-03       4    7    1         0.2618429415E-01      0.5628213204E-01
          0                 4           1             4    7     1      -0.1875532156E-04       4    7    1        -0.1070939333E-02      0.2301943096E-02

    ------------------------------------------------
       NWT REQUIRED            4 OUTER ITERATIONS 
       AND A TOTAL OF          7 INNER ITERATIONS.
    ------------------------------------------------

 NO OUTPUT CONTROL FOR STRESS PERIOD   35   TIME STEP    7
 
 SOLVING FOR HEAD 
                                                   Max.-Head-Change                         Max.-Flux-Residual
  Residual-Control   Outer-Iter.   Inner-Iter.     Column Row Layer    Maximum-Head-Change  Column Row Layer    Maximum-Flux-Residual          L2-NORM 
          0                 1           2             4    7     1       0.7031894026E-01       4    7    1         0.3697151072E+01      0.7898546150E+01
          0                 2           2             4    7     1      -0.6840186257E-02       4    7    1        -0.3697199240E+00      0.7898563016E+00
          0                 3           2             4    7     1       0.4657906327E-03       4    7    1         0.2588036028E-01      0.5528993140E-01
          0                 4           1             4    7     1      -0.1853424801E-04       4    7    1        -0.1058508408E-02      0.2261361884E-02

    ------------------------------------------------
       NWT REQUIRED            4 OUTER ITERATIONS 
       AND A TOTAL OF          7 INNER ITERATIONS.
    ------------------------------------------------

 NO OUTPUT CONTROL FOR STRESS PERIOD   35   TIME STEP    8
 
 SOLVING FOR HEAD 
                                                   Max.-Head-Change                         Max.-Flux-Residual
  Residual-Control   Outer-Iter.   Inner-Iter.     Column Row Layer    Maximum-Head-Change  Column Row Layer    Maximum-Flux-Residual          L2-NORM 
          0                 1           2             4    7     1       0.6947824459E-01       4    7    1         0.3653568822E+01      0.7761501519E+01
          0                 2           2             4    7     1      -0.6758409670E-02       4    7    1        -0.3653617097E+00      0.7761519629E+00
          0                 3           2             4    7     1       0.4602219488E-03       4    7    1         0.2557528505E-01      0.5433062070E-01
          0                 4           1             4    7     1      -0.1831266537E-04       4    7    1        -0.1046030827E-02      0.2222123856E-02

    ------------------------------------------------
       NWT REQUIRED            4 OUTER ITERATIONS 
       AND A TOTAL OF          7 INNER ITERATIONS.
    ------------------------------------------------

 NO OUTPUT CONTROL FOR STRESS PERIOD   35   TIME STEP    9
 
 SOLVING FOR HEAD 
                                                   Max.-Head-Change                         Max.-Flux-Residual
  Residual-Control   Outer-Iter.   Inner-Iter.     Column Row Layer    Maximum-Head-Change  Column Row Layer    Maximum-Flux-Residual          L2-NORM 
          0                 1           2             4    7     1       0.6863687036E-01       4    7    1         0.3609893538E+01      0.7628902892E+01
          0                 2           2             4    7     1      -0.6676566901E-02       4    7    1        -0.3609941803E+00      0.7628922071E+00
          0                 3           2             4    7     1       0.4546487599E-03       4    7    1         0.2526955788E-01      0.5340244121E-01
          0                 4           1             4    7     1      -0.1809090279E-04       4    7    1        -0.1033526566E-02      0.2184162532E-02

    ------------------------------------------------
       NWT REQUIRED            4 OUTER ITERATIONS 
       AND A TOTAL OF          7 INNER ITERATIONS.
    ------------------------------------------------

 NO OUTPUT CONTROL FOR STRESS PERIOD   35   TIME STEP   10
 
 SOLVING FOR HEAD 
                                                   Max.-Head-Change                         Max.-Flux-Residual
  Residual-Control   Outer-Iter.   Inner-Iter.     Column Row Layer    Maximum-Head-Change  Column Row Layer    Maximum-Flux-Residual          L2-NORM 
          0                 1           2             4    7     1       0.6779571187E-01       4    7    1         0.3566175795E+01      0.7500513695E+01
          0                 2           2             4    7     1      -0.6594744961E-02       4    7    1        -0.3566223944E+00      0.7500533556E+00
          0                 3           2             4    7     1       0.4490769905E-03       4    7    1         0.2496353284E-01      0.5250371936E-01
          0                 4           1             4    7     1      -0.1786919685E-04       4    7    1        -0.1021010129E-02      0.2147404384E-02

    ------------------------------------------------
       NWT REQUIRED            4 OUTER ITERATIONS 
       AND A TOTAL OF          7 INNER ITERATIONS.
    ------------------------------------------------

 NO OUTPUT CONTROL FOR STRESS PERIOD   35   TIME STEP   11
 
 SOLVING FOR HEAD 
                                                   Max.-Head-Change                         Max.-Flux-Residual
  Residual-Control   Outer-Iter.   Inner-Iter.     Column Row Layer    Maximum-Head-Change  Column Row Layer    Maximum-Flux-Residual          L2-NORM 
          0                 1           2             4    7     1       0.6695586592E-01       4    7    1         0.3522476452E+01      0.7376126534E+01
          0                 2           2             4    7     1      -0.6519727774E-02       4    7    1        -0.3527359136E+00      0.7376536696E+00
          0                 3           2             4    7     1       0.4439685597E-03       4    7    1         0.2469147643E-01      0.5163573501E-01
          0                 4           1             4    7     1      -0.1766592756E-04       4    7    1        -0.1009883003E-02      0.2111904548E-02

    ------------------------------------------------
       NWT REQUIRED            4 OUTER ITERATIONS 
       AND A TOTAL OF          7 INNER ITERATIONS.
    ------------------------------------------------

 NO OUTPUT CONTROL FOR STRESS PERIOD   35   TIME STEP   12
 
 SOLVING FOR HEAD 
                                                   Max.-Head-Change                         Max.-Flux-Residual
  Residual-Control   Outer-Iter.   Inner-Iter.     Column Row Layer    Maximum-Head-Change  Column Row Layer    Maximum-Flux-Residual          L2-NORM 
          0                 1           2             4    7     1       0.6609268869E-01       4    7    1         0.3478481969E+01      0.7255495505E+01
          0                 2           2             4    7     1      -0.6429091537E-02       4    7    1        -0.3478532134E+00      0.7255555792E+00
          0                 3           2             4    7     1       0.4377965784E-03       4    7    1         0.2434968799E-01      0.5078886892E-01
          0                 4           1             4    7     1      -0.1742033886E-04       4    7    1        -0.9959038464E-03      0.2077266271E-02

    ------------------------------------------------
       NWT REQUIRED            4 OUTER ITERATIONS 
       AND A TOTAL OF          7 INNER ITERATIONS.
    ------------------------------------------------

 NO OUTPUT CONTROL FOR STRESS PERIOD   35   TIME STEP   13
 
 SOLVING FOR HEAD 
                                                   Max.-Head-Change                         Max.-Flux-Residual
  Residual-Control   Outer-Iter.   Inner-Iter.     Column Row Layer    Maximum-Head-Change  Column Row Layer    Maximum-Flux-Residual          L2-NORM 
          0                 1           2             4    7     1       0.6524028459E-01       4    7    1         0.3433996552E+01      0.7138425078E+01
          0                 2           2             4    7     1      -0.6346173825E-02       4    7    1        -0.3434046296E+00      0.7138447029E+00
          0                 3           2             4    7     1       0.4321501956E-03       4    7    1         0.2403828739E-01      0.4996910474E-01
          0                 4           1             4    7     1      -0.1719566378E-04       4    7    1        -0.9831675388E-03      0.2043740805E-02

    ------------------------------------------------
       NWT REQUIRED            4 OUTER ITERATIONS 
       AND A TOTAL OF          7 INNER ITERATIONS.
    ------------------------------------------------

 NO OUTPUT CONTROL FOR STRESS PERIOD   35   TIME STEP   14
 
 SOLVING FOR HEAD 
                                                   Max.-Head-Change                         Max.-Flux-Residual
  Residual-Control   Outer-Iter.   Inner-Iter.     Column Row Layer    Maximum-Head-Change  Column Row Layer    Maximum-Flux-Residual          L2-NORM 
          0                 1           2             4    7     1       0.6439238168E-01       4    7    1         0.3389706864E+01      0.7024743325E+01
          0                 2           2             4    7     1      -0.6263695284E-02       4    7    1        -0.3389756118E+00      0.7024765559E+00
          0                 3           2             4    7     1       0.4265337195E-03       4    7    1         0.2372825647E-01      0.4917333419E-01
          0                 4           1             4    7     1      -0.1697217923E-04       4    7    1        -0.9704872573E-03      0.2011189638E-02

    ------------------------------------------------
       NWT REQUIRED            4 OUTER ITERATIONS 
       AND A TOTAL OF          7 INNER ITERATIONS.
    ------------------------------------------------

 NO OUTPUT CONTROL FOR STRESS PERIOD   35   TIME STEP   15
 
 SOLVING FOR HEAD 
                                                   Max.-Head-Change                         Max.-Flux-Residual
  Residual-Control   Outer-Iter.   Inner-Iter.     Column Row Layer    Maximum-Head-Change  Column Row Layer    Maximum-Flux-Residual          L2-NORM 
          0                 1           2             4    7     1       0.6354964117E-01       4    7    1         0.3345650449E+01      0.6914336292E+01
          0                 2           2             4    7     1      -0.6181718815E-02       4    7    1        -0.3345699154E+00      0.6914358712E+00
          0                 3           2             4    7     1       0.4209514339E-03       4    7    1         0.2341985812E-01      0.4840048625E-01
          0                 4           1             4    7     1      -0.1675005469E-04       4    7    1        -0.9578737424E-03      0.1979580943E-02

    ------------------------------------------------
       NWT REQUIRED            4 OUTER ITERATIONS 
       AND A TOTAL OF          7 INNER ITERATIONS.
    ------------------------------------------------

 NO OUTPUT CONTROL FOR STRESS PERIOD   35   TIME STEP   16
 
 SOLVING FOR HEAD 
                                                   Max.-Head-Change                         Max.-Flux-Residual
  Residual-Control   Outer-Iter.   Inner-Iter.     Column Row Layer    Maximum-Head-Change  Column Row Layer    Maximum-Flux-Residual          L2-NORM 
          0                 1           2             4    7     1       0.6271265959E-01       4    7    1         0.3301861666E+01      0.6807038742E+01
          0                 2           2             4    7     1      -0.6100302455E-02       4    7    1        -0.3301909770E+00      0.6807061209E+00
          0                 3           2             4    7     1       0.4154072899E-03       4    7    1         0.2311333286E-01      0.4764939789E-01
          0                 4           1             4    7     1      -0.1652944776E-04       4    7    1        -0.9453368325E-03      0.1948858286E-02

    ------------------------------------------------
       NWT REQUIRED            4 OUTER ITERATIONS 
       AND A TOTAL OF          7 INNER ITERATIONS.
    ------------------------------------------------

 NO OUTPUT CONTROL FOR STRESS PERIOD   35   TIME STEP   17
 
 SOLVING FOR HEAD 
                                                   Max.-Head-Change                         Max.-Flux-Residual
  Residual-Control   Outer-Iter.   Inner-Iter.     Column Row Layer    Maximum-Head-Change  Column Row Layer    Maximum-Flux-Residual          L2-NORM 
          0                 1           2             4    7     1       0.6188211665E-01       4    7    1         0.3258378698E+01      0.6702730150E+01
          0                 2           2             4    7     1      -0.6019512333E-02       4    7    1        -0.3258426157E+00      0.6702752594E+00
          0                 3           2             4    7     1       0.4099057911E-03       4    7    1         0.2280894803E-01      0.4691924201E-01
          0                 4           1             4    7     1      -0.1631053815E-04       4    7    1        -0.9328874835E-03      0.1918999175E-02

    ------------------------------------------------
       NWT REQUIRED            4 OUTER ITERATIONS 
       AND A TOTAL OF          7 INNER ITERATIONS.
    ------------------------------------------------

 NO OUTPUT CONTROL FOR STRESS PERIOD   35   TIME STEP   18
 
 SOLVING FOR HEAD 
                                                   Max.-Head-Change                         Max.-Flux-Residual
  Residual-Control   Outer-Iter.   Inner-Iter.     Column Row Layer    Maximum-Head-Change  Column Row Layer    Maximum-Flux-Residual          L2-NORM 
          0                 1           2             4    7     1       0.6105849965E-01       4    7    1         0.3215229538E+01      0.6601268839E+01
          0                 2           2             4    7     1      -0.5939395858E-02       4    7    1        -0.3215276312E+00      0.6601291139E+00
          0                 3           2             4    7     1       0.4044501659E-03       4    7    1         0.2250689964E-01      0.4620900709E-01
          0                 4           1             4    7     1      -0.1609345366E-04       4    7    1        -0.9205336755E-03      0.1889952799E-02

    ------------------------------------------------
       NWT REQUIRED            4 OUTER ITERATIONS 
       AND A TOTAL OF          7 INNER ITERATIONS.
    ------------------------------------------------

 NO OUTPUT CONTROL FOR STRESS PERIOD   35   TIME STEP   19
 
 SOLVING FOR HEAD 
                                                   Max.-Head-Change                         Max.-Flux-Residual
  Residual-Control   Outer-Iter.   Inner-Iter.     Column Row Layer    Maximum-Head-Change  Column Row Layer    Maximum-Flux-Residual          L2-NORM 
          0                 1           2             4    7     1       0.6024211234E-01       4    7    1         0.3172432194E+01      0.6502533797E+01
          0                 2           2             4    7     1      -0.5859982586E-02       4    7    1        -0.3172478251E+00      0.6502555991E+00
          0                 3           2             4    7     1       0.3990424270E-03       4    7    1         0.2220731377E-01      0.4551786474E-01
          0                 4           1             4    7     1      -0.1587827454E-04       4    7    1        -0.9082805950E-03      0.1861681329E-02

    ------------------------------------------------
       NWT REQUIRED            4 OUTER ITERATIONS 
       AND A TOTAL OF          7 INNER ITERATIONS.
    ------------------------------------------------

 NO OUTPUT CONTROL FOR STRESS PERIOD   35   TIME STEP   20
 
 SOLVING FOR HEAD 
                                                   Max.-Head-Change                         Max.-Flux-Residual
  Residual-Control   Outer-Iter.   Inner-Iter.     Column Row Layer    Maximum-Head-Change  Column Row Layer    Maximum-Flux-Residual          L2-NORM 
          0                 1           2             4    7     1       0.5943361650E-01       4    7    1         0.3130024184E+01      0.6406409300E+01
          0                 2           2             4    7     1      -0.5781336897E-02       4    7    1        -0.3130069496E+00      0.6406431281E+00
          0                 3           2             4    7     1       0.3936869578E-03       4    7    1         0.2191045305E-01      0.4484498726E-01
          0                 4           1             4    7     1      -0.1566517530E-04       4    7    1        -0.8961389781E-03      0.1834165222E-02

    ------------------------------------------------
       NWT REQUIRED            4 OUTER ITERATIONS 
       AND A TOTAL OF          7 INNER ITERATIONS.
    ------------------------------------------------

 NO OUTPUT CONTROL FOR STRESS PERIOD   35   TIME STEP   21
 
 SOLVING FOR HEAD 
                                                   Max.-Head-Change                         Max.-Flux-Residual
  Residual-Control   Outer-Iter.   Inner-Iter.     Column Row Layer    Maximum-Head-Change  Column Row Layer    Maximum-Flux-Residual          L2-NORM 
          0                 1           2             4    7     1       0.5863308916E-01       4    7    1         0.3088010795E+01      0.6312789372E+01
          0                 2           2             4    7     1      -0.5703466291E-02       4    7    1        -0.3088055339E+00      0.6312811017E+00
          0                 3           2             4    7     1       0.3883842690E-03       4    7    1         0.2161635455E-01      0.4418964001E-01
          0                 4           1             4    7     1      -0.1545417646E-04       4    7    1        -0.8841103268E-03      0.1807353065E-02

    ------------------------------------------------
       NWT REQUIRED            4 OUTER ITERATIONS 
       AND A TOTAL OF          7 INNER ITERATIONS.
    ------------------------------------------------

 NO OUTPUT CONTROL FOR STRESS PERIOD   35   TIME STEP   22
 
 SOLVING FOR HEAD 
                                                   Max.-Head-Change                         Max.-Flux-Residual
  Residual-Control   Outer-Iter.   Inner-Iter.     Column Row Layer    Maximum-Head-Change  Column Row Layer    Maximum-Flux-Residual          L2-NORM 
          0                 1           2             4    7     1       0.5784097577E-01       4    7    1         0.3046417793E+01      0.6221566059E+01
          0                 2           2             4    7     1      -0.5626414105E-02       4    7    1        -0.3046461550E+00      0.6221587461E+00
          0                 3           2             4    7     1       0.3831373126E-03       4    7    1         0.2132519866E-01      0.4355108348E-01
          0                 4           1             4    7     1      -0.1524539532E-04       4    7    1        -0.8722020398E-03      0.1781239875E-02

    ------------------------------------------------
       NWT REQUIRED            4 OUTER ITERATIONS 
       AND A TOTAL OF          7 INNER ITERATIONS.
    ------------------------------------------------

 NO OUTPUT CONTROL FOR STRESS PERIOD   35   TIME STEP   23
 
 SOLVING FOR HEAD 
                                                   Max.-Head-Change                         Max.-Flux-Residual
  Residual-Control   Outer-Iter.   Inner-Iter.     Column Row Layer    Maximum-Head-Change  Column Row Layer    Maximum-Flux-Residual          L2-NORM 
          0                 1           2             4    7     1       0.5705768256E-01       4    7    1         0.3005268276E+01      0.6132660341E+01
          0                 2           2             4    7     1      -0.5550219861E-02       4    7    1        -0.3005311231E+00      0.6132681338E+00
          0                 3           2             4    7     1       0.3779487783E-03       4    7    1         0.2103714706E-01      0.4292873550E-01
          0                 4           1             4    7     1      -0.1503893838E-04       4    7    1        -0.8604207017E-03      0.1755786791E-02

    ------------------------------------------------
       NWT REQUIRED            4 OUTER ITERATIONS 
       AND A TOTAL OF          7 INNER ITERATIONS.
    ------------------------------------------------

 NO OUTPUT CONTROL FOR STRESS PERIOD   35   TIME STEP   24
 
 SOLVING FOR HEAD 
                                                   Max.-Head-Change                         Max.-Flux-Residual
  Residual-Control   Outer-Iter.   Inner-Iter.     Column Row Layer    Maximum-Head-Change  Column Row Layer    Maximum-Flux-Residual          L2-NORM 
          0                 1           2             4    7     1       0.5628330646E-01       4    7    1         0.2964568789E+01      0.6045964876E+01
          0                 2           2             4    7     1      -0.5474892990E-02       4    7    1        -0.2964610930E+00      0.6045985523E+00
          0                 3           2             4    7     1       0.3728193092E-03       4    7    1         0.2075224560E-01      0.4232186305E-01
          0                 4           1             4    7     1      -0.1483483199E-04       4    7    1        -0.8487682076E-03      0.1730966048E-02

    ------------------------------------------------
       NWT REQUIRED            4 OUTER ITERATIONS 
       AND A TOTAL OF          7 INNER ITERATIONS.
    ------------------------------------------------

 NO OUTPUT CONTROL FOR STRESS PERIOD   35   TIME STEP   25
 
 SOLVING FOR HEAD 
                                                   Max.-Head-Change                         Max.-Flux-Residual
  Residual-Control   Outer-Iter.   Inner-Iter.     Column Row Layer    Maximum-Head-Change  Column Row Layer    Maximum-Flux-Residual          L2-NORM 
          0                 1           2             4    7     1       0.5551804958E-01       4    7    1         0.2924331617E+01      0.5961395300E+01
          0                 2           2             4    7     1      -0.5400453158E-02       4    7    1        -0.2924372937E+00      0.5961415511E+00
          0                 3           2             4    7     1       0.3677502442E-03       4    7    1         0.2047058029E-01      0.4172987391E-01
          0                 4           1             4    7     1      -0.1463312901E-04       4    7    1        -0.8372480745E-03      0.1706753684E-02

    ------------------------------------------------
       NWT REQUIRED            4 OUTER ITERATIONS 
       AND A TOTAL OF          7 INNER ITERATIONS.
    ------------------------------------------------

 NO OUTPUT CONTROL FOR STRESS PERIOD   35   TIME STEP   26
 
 SOLVING FOR HEAD 
                                                   Max.-Head-Change                         Max.-Flux-Residual
  Residual-Control   Outer-Iter.   Inner-Iter.     Column Row Layer    Maximum-Head-Change  Column Row Layer    Maximum-Flux-Residual          L2-NORM 
          0                 1           2             4    7     1       0.5476221991E-01       4    7    1         0.2884574501E+01      0.5878883319E+01
          0                 2           2             4    7     1      -0.5326930330E-02       4    7    1        -0.2884614994E+00      0.5878903132E+00
          0                 3           2             4    7     1       0.3627436240E-03       4    7    1         0.2019227536E-01      0.4115228220E-01
          0                 4           1             4    7     1      -0.1443391072E-04       4    7    1        -0.8258653861E-03      0.1683128676E-02

    ------------------------------------------------
       NWT REQUIRED            4 OUTER ITERATIONS 
       AND A TOTAL OF          7 INNER ITERATIONS.
    ------------------------------------------------

 NO OUTPUT CONTROL FOR STRESS PERIOD   35   TIME STEP   27
 
 SOLVING FOR HEAD 
                                                   Max.-Head-Change                         Max.-Flux-Residual
  Residual-Control   Outer-Iter.   Inner-Iter.     Column Row Layer    Maximum-Head-Change  Column Row Layer    Maximum-Flux-Residual          L2-NORM 
          0                 1           2             4    7     1       0.5401582252E-01       4    7    1         0.2845298888E+01      0.5798343524E+01
          0                 2           2             4    7     1      -0.5254325000E-02       4    7    1        -0.2845338552E+00      0.5798362927E+00
          0                 3           2             4    7     1       0.3577994823E-03       4    7    1         0.1991734093E-01      0.4058850606E-01
          0                 4           1             4    7     1      -0.1423717883E-04       4    7    1        -0.8146205539E-03      0.1660071516E-02

    ------------------------------------------------
       NWT REQUIRED            4 OUTER ITERATIONS 
       AND A TOTAL OF          7 INNER ITERATIONS.
    ------------------------------------------------

 NO OUTPUT CONTROL FOR STRESS PERIOD   35   TIME STEP   28
 
 SOLVING FOR HEAD 
                                                   Max.-Head-Change                         Max.-Flux-Residual
  Residual-Control   Outer-Iter.   Inner-Iter.     Column Row Layer    Maximum-Head-Change  Column Row Layer    Maximum-Flux-Residual          L2-NORM 
          0                 1           2             4    7     1       0.5327924423E-01       4    7    1         0.2806526830E+01      0.5719704116E+01
          0                 2           2             4    7     1      -0.5182674801E-02       4    7    1        -0.2806565664E+00      0.5719723009E+00
          0                 3           2             4    7     1       0.3529203813E-03       4    7    1         0.1964593139E-01      0.4003802087E-01
          0                 4           1             4    7     1      -0.1404303467E-04       4    7    1        -0.8035198778E-03      0.1637555591E-02

    ------------------------------------------------
       NWT REQUIRED            4 OUTER ITERATIONS 
       AND A TOTAL OF          7 INNER ITERATIONS.
    ------------------------------------------------

 NO OUTPUT CONTROL FOR STRESS PERIOD   35   TIME STEP   29
 
 SOLVING FOR HEAD 
                                                   Max.-Head-Change                         Max.-Flux-Residual
  Residual-Control   Outer-Iter.   Inner-Iter.     Column Row Layer    Maximum-Head-Change  Column Row Layer    Maximum-Flux-Residual          L2-NORM 
          0                 1           2             4    7     1       0.5255243532E-01       4    7    1         0.2768256594E+01      0.5642904991E+01
          0                 2           2             4    7     1      -0.5111974897E-02       4    7    1        -0.2768294600E+00      0.5642923426E+00
          0                 3           2             4    7     1       0.3481059916E-03       4    7    1         0.1937803460E-01      0.3950043076E-01
          0                 4           1             4    7     1      -0.1385146568E-04       4    7    1        -0.7925628804E-03      0.1615577094E-02

    ------------------------------------------------
       NWT REQUIRED            4 OUTER ITERATIONS 
       AND A TOTAL OF          7 INNER ITERATIONS.
    ------------------------------------------------

 NO OUTPUT CONTROL FOR STRESS PERIOD   35   TIME STEP   30



 STREAM LISTING     PERIOD     35   STEP       30

 LAYER ROW COL. STREAM  RCH.  FLOW INTO     FLOW TO   FLOW OUT OF   OVRLND.     DIRECT     STREAM       STREAM     STREAM     STREAM   STREAMBED  STREAMBED
                SEG.NO.  NO.  STRM. RCH.    AQUIFER    STRM. RCH.    RUNOFF     PRECIP       ET          HEAD       DEPTH      WIDTH   CONDCTNC.   GRADIENT

   1    1    1     1     1    1.9000E+01  2.1427E-01   1.8786E+01  0.000E+00  0.000E+00  0.000E+00  1.09413E+03  1.082E+00  1.166E+01  5.249E-02  1.361E+00
   1    2    2     1     2    1.8786E+01  3.3054E-01   1.8455E+01  0.000E+00  0.000E+00  0.000E+00  1.08914E+03  1.077E+00  1.158E+01  8.107E-02  1.359E+00
   1    3    3     1     3    1.8455E+01  2.8064E-01   1.8175E+01  0.000E+00  0.000E+00  0.000E+00  1.08349E+03  1.072E+00  1.149E+01  6.892E-02  1.357E+00
   1    3    4     1     4    1.8175E+01  2.5740E-01   1.7917E+01  0.000E+00  0.000E+00  0.000E+00  1.07848E+03  1.068E+00  1.140E+01  6.328E-02  1.356E+00
   1    4    5     2     1    1.5917E+01  3.0542E-01   1.5612E+01  0.000E+00  0.000E+00  0.000E+00  1.07285E+03  9.157E-01  1.200E+01  7.800E-02  1.305E+00
   1    5    6     2     2    1.5612E+01  2.3438E-01   1.5377E+01  0.000E+00  0.000E+00  0.000E+00  1.06742E+03  9.063E-01  1.200E+01  6.000E-02  1.302E+00
   1    6    6     2     3    1.5377E+01  2.3388E-01   1.5143E+01  0.000E+00  0.000E+00  0.000E+00  1.06269E+03  8.980E-01  1.200E+01  6.000E-02  1.299E+00
   1    7    6     2     4    1.5143E+01  2.3338E-01   1.4910E+01  0.000E+00  0.000E+00  0.000E+00  1.05797E+03  8.897E-01  1.200E+01  6.000E-02  1.297E+00
   1    8    6     2     5    1.4910E+01  2.3289E-01   1.4677E+01  0.000E+00  0.000E+00  0.000E+00  1.05324E+03  8.814E-01  1.200E+01  6.000E-02  1.294E+00
   1    3    5     3     1    2.0000E+00  2.8252E-01   1.7175E+00  0.000E+00  0.000E+00  0.000E+00  1.07555E+03  1.909E+00  9.636E+00  7.227E-02  1.955E+00
   1    3    6     3     2    1.7175E+00  2.4905E-01   1.4684E+00  0.000E+00  0.000E+00  0.000E+00  1.07264E+03  1.727E+00  8.909E+00  6.682E-02  1.864E+00
   1    3    7     3     3    1.4684E+00  1.9718E-01   1.2712E+00  0.000E+00  0.000E+00  0.000E+00  1.06987E+03  1.555E+00  8.218E+00  5.547E-02  1.777E+00
   1    4    8     3     4    1.2712E+00  2.2567E-01   1.0456E+00  0.000E+00  0.000E+00  0.000E+00  1.06682E+03  1.364E+00  7.455E+00  6.709E-02  1.682E+00
   1    5    8     3     5    1.0456E+00  1.5790E-01   8.8768E-01  0.000E+00  0.000E+00  0.000E+00  1.06362E+03  1.164E+00  6.655E+00  4.991E-02  1.582E+00
   1    6    8     3     6    8.8768E-01  5.5980E-02   8.3170E-01  0.000E+00  0.000E+00  0.000E+00  1.06158E+03  1.036E+00  6.145E+00  1.844E-02  1.518E+00
   1    5   10     4     1    1.0000E+01  9.0919E-02   9.9091E+00  0.000E+00  0.000E+00  0.000E+00  1.07836E+03  6.368E-01  1.000E+01  2.500E-02  1.212E+00
   1    5    9     4     2    9.9091E+00  1.8158E-01   9.7275E+00  0.000E+00  0.000E+00  0.000E+00  1.07154E+03  6.315E-01  1.000E+01  5.000E-02  1.211E+00
   1    6    8     4     3    9.7275E+00  1.2689E-01   9.6006E+00  0.000E+00  0.000E+00  0.000E+00  1.06381E+03  6.256E-01  1.000E+01  3.500E-02  1.209E+00
   1    6    8     5     1    1.0432E+01  2.2686E-01   1.0205E+01  0.000E+00  0.000E+00  0.000E+00  1.05868E+03  6.790E-01  1.542E+01  6.166E-02  1.226E+00
   1    7    7     5     2    1.0205E+01  2.7894E-01   9.9265E+00  0.000E+00  0.000E+00  0.000E+00  1.05417E+03  6.732E-01  1.519E+01  7.594E-02  1.224E+00
   1    8    7     5     3    9.9265E+00  1.9221E-01   9.7343E+00  0.000E+00  0.000E+00  0.000E+00  1.04992E+03  6.676E-01  1.497E+01  5.241E-02  1.223E+00
   1    8    6     5     4    9.7343E+00  1.3577E-01   9.5985E+00  0.000E+00  0.000E+00  0.000E+00  1.04691E+03  6.637E-01  1.482E+01  3.706E-02  1.221E+00
   1    9    6     6     1    2.4276E+01  2.5176E-01   2.4024E+01  0.000E+00  0.000E+00  0.000E+00  1.04392E+03  1.196E+00  1.200E+01  6.000E-02  1.399E+00
   1   10    7     6     2    2.4024E+01  2.5131E-01   2.3773E+01  0.000E+00  0.000E+00  0.000E+00  1.03937E+03  1.188E+00  1.200E+01  6.000E-02  1.396E+00
   1   11    7     6     3    2.3773E+01  2.5086E-01   2.3522E+01  0.000E+00  0.000E+00  0.000E+00  1.03482E+03  1.181E+00  1.200E+01  6.000E-02  1.394E+00
   1   12    7     6     4    2.3522E+01  2.5041E-01   2.3271E+01  0.000E+00  0.000E+00  0.000E+00  1.03026E+03  1.173E+00  1.200E+01  6.000E-02  1.391E+00
   1   13    7     6     5    2.3271E+01  7.5683E-03   2.3264E+01  0.000E+00  0.000E+00  0.000E+00  1.02708E+03  1.170E+00  1.200E+01  2.400E-02  1.051E-01
   1   14    9     7     1    1.5000E+02  1.3556E+00   1.4864E+02  0.000E+00  0.000E+00  0.000E+00  1.03987E+03  2.288E+00  5.529E+01  5.593E-01  8.079E-01
   1   13    8     7     2    1.4864E+02  1.9242E+00   1.4672E+02  0.000E+00  0.000E+00  0.000E+00  1.03478E+03  2.279E+00  5.526E+01  6.148E-01  1.043E+00
   1   13    7     7     3    1.4672E+02  1.6336E+00   1.4509E+02  0.000E+00  0.000E+00  0.000E+00  1.02969E+03  2.269E+00  5.521E+01  5.584E-01  9.752E-01
   1   13    6     8     1    1.6835E+02  1.0737E+00   1.6728E+02  0.000E+00  0.000E+00  0.000E+00  1.02481E+03  2.938E+00  4.260E+01  4.341E-01  8.245E-01
   1   13    5     8     2    1.6728E+02  3.1952E-01   1.6696E+02  0.000E+00  0.000E+00  0.000E+00  1.01856E+03  2.933E+00  4.253E+01  4.334E-01  2.457E-01
   1   13    4     8     3    1.6696E+02 -1.9470E+00   1.6890E+02  0.000E+00  0.000E+00  0.000E+00  1.01231E+03  2.939E+00  4.261E+01  4.342E+00 -1.495E-01
   1   13    3     8     4    1.6890E+02 -3.4162E+00   1.7232E+02  0.000E+00  0.000E+00  0.000E+00  1.00608E+03  2.956E+00  4.286E+01  4.368E+00 -2.607E-01
   1   13    2     8     5    1.7232E+02 -2.5205E+00   1.7484E+02  0.000E+00  0.000E+00  0.000E+00  9.99850E+02  2.975E+00  4.314E+01  4.396E+00 -1.911E-01
   1   13    1     8     6    1.7484E+02 -1.9680E+00   1.7681E+02  0.000E+00  0.000E+00  0.000E+00  9.94865E+02  2.990E+00  4.335E+01  2.651E+00 -2.475E-01





UNSATURATED ZONE PACKAGE VOLUMETRIC BUDGET FOR  TIME STEP    30 STRESS PERIOD   35
  ------------------------------------------------------------------------------



     CUMULATIVE VOLUMES      L**3       RATES FOR THIS TIME STEP      L**3/T
     ------------------                 ------------------------

           IN:                                      IN:
           ---                                      ---
        INFILTRATION =  1287556551.2157          INFILTRATION =           0.8475

          OUT:                                     OUT:
          ----                                     ----
              UZF ET =  1286717672.5861                UZF ET =           0.8475
        UZF RECHARGE =       73224.0000          UZF RECHARGE =       0.0000E+00

            IN - OUT =      765654.6296              IN - OUT =       0.0000E+00

          STORAGE:                                 STORAGE:
          --------                                 --------
      STORAGE CHANGE =      765646.1633        STORAGE CHANGE =      -2.2824E-16

 PERCENT DISCREPANCY IS DIFFERENCE BETWEEN IN-OUT MINUS CHANGE IN STORAGE
 DIVIDED BY THE AVERAGE OF IN AND OUT TIMES 100

 PERCENT DISCREPANCY =           0.00     PERCENT DISCREPANCY =           0.00






1
  VOLUMETRIC BUDGET FOR AGRICULTURAL FIELDS AT  END OF TIME STEP   30, STRESS PERIOD  35
  ------------------------------------------------------------------------------

     CUMULATIVE VOLUMES      L**3       RATES FOR THIS TIME STEP      L**3/T
     ------------------                 ------------------------

           IN:                                      IN:
           ---                                      ---
               AG WELLS  =  1211695232.0000                 AG WELLS  =           0.0000
      DIVERSION SEGMENTS =           0.0000        DIVERSION SEGMENTS =           0.0000
       IRRIGATION PONDS  =           0.0000         IRRIGATION PONDS  =           0.0000
           GW IRRIGATION =           0.0000             GW IRRIGATION =           0.0000
           SW IRRIGATION =           0.0000             SW IRRIGATION =           0.0000
        SYSTEM LOSSES GW =           0.0000          SYSTEM LOSSES GW =           0.0000
        SYSTEM LOSSES SW =           0.0000          SYSTEM LOSSES SW =           0.0000

                TOTAL IN =  1211695232.0000                  TOTAL IN =           0.0000

          OUT:                                     OUT:
          ----                                     ----
               AG WELLS  =           0.0000                 AG WELLS  =           0.0000
      DIVERSION SEGMENTS =           0.0000        DIVERSION SEGMENTS =           0.0000
       IRRIGATION PONDS  =           0.0000         IRRIGATION PONDS  =           0.0000
           GW IRRIGATION =  1211695232.0000             GW IRRIGATION =           0.0000
           SW IRRIGATION =           0.0000             SW IRRIGATION =           0.0000
        SYSTEM LOSSES GW =           0.0000          SYSTEM LOSSES GW =           0.0000
        SYSTEM LOSSES SW =           0.0000          SYSTEM LOSSES SW =           0.0000

               TOTAL OUT =  1211695232.0000                 TOTAL OUT =           0.0000

                IN - OUT =           0.0000                  IN - OUT =           0.0000

     PERCENT DISCREPANCY =           0.00         PERCENT DISCREPANCY =           0.00



1
  VOLUMETRIC BUDGET FOR ENTIRE MODEL AT END OF TIME STEP   30, STRESS PERIOD  35
  ------------------------------------------------------------------------------

     CUMULATIVE VOLUMES      L**3       RATES FOR THIS TIME STEP      L**3/T
     ------------------                 ------------------------

           IN:                                      IN:
           ---                                      ---
             STORAGE     =  1601783040.0000               STORAGE     =          12.8095
       CONSTANT HEAD     =           0.0000         CONSTANT HEAD     =           0.0000
     HEAD DEP BOUNDS     =    25577418.0000       HEAD DEP BOUNDS     =           0.2871
      STREAM LEAKAGE     =  1097276672.0000        STREAM LEAKAGE     =          12.0429
        UZF RECHARGE     =       73223.9531          UZF RECHARGE     =           0.0000
               GW ET     =           0.0000                 GW ET     =           0.0000
     SURFACE LEAKAGE     =           0.0000       SURFACE LEAKAGE     =           0.0000
           AG WELLS      =           0.0000             AG WELLS      =           0.0000

                TOTAL IN =  2724710400.0000                  TOTAL IN =          25.1395

          OUT:                                     OUT:
          ----                                     ----
             STORAGE     =   549378368.0000               STORAGE     =          14.9987
       CONSTANT HEAD     =           0.0000         CONSTANT HEAD     =           0.0000
     HEAD DEP BOUNDS     =    26192770.0000       HEAD DEP BOUNDS     =           0.2891
      STREAM LEAKAGE     =   919843584.0000        STREAM LEAKAGE     =           9.8517
        UZF RECHARGE     =           0.0000          UZF RECHARGE     =           0.0000
               GW ET     =    17603406.0000                 GW ET     =           0.0000
     SURFACE LEAKAGE     =           0.0000       SURFACE LEAKAGE     =           0.0000
           AG WELLS      =  1211695232.0000             AG WELLS      =           0.0000

               TOTAL OUT =  2724713472.0000                 TOTAL OUT =          25.1395

                IN - OUT =       -3072.0000                  IN - OUT =       1.3351E-05

     PERCENT DISCREPANCY =          -0.00         PERCENT DISCREPANCY =           0.00






         TIME SUMMARY AT END OF TIME STEP   30 IN STRESS PERIOD   35
                    SECONDS     MINUTES      HOURS       DAYS        YEARS
                    -----------------------------------------------------------
   TIME STEP LENGTH  87667.      1461.1      24.352      1.0147     2.77799E-03
 STRESS PERIOD TIME 2.63000E+06  43833.      730.56      30.440     8.33397E-02
         TOTAL TIME 8.95061E+07 1.49177E+06  24863.      1036.0      2.8363    
1
1
                            STRESS PERIOD NO.   36, LENGTH =   2630000.    
                            -----------------------------------------------

                              NUMBER OF TIME STEPS =    30

                               MULTIPLIER FOR DELT =     1.000

                            INITIAL TIME STEP SIZE =   87666.66    

 REUSING NON-PARAMETER GHB CELLS FROM LAST STRESS PERIOD

      2 GHB CELLS

 REUSING STREAM SEGMENT DATA FROM LAST STRESS PERIOD



            AREAL INFILTRATION RATE
 READING ON UNIT   19 WITH FORMAT: (FREE)              

            1           2           3           4           5           6           7           8           9          10
 ........................................................................................................................
   1   1.0000E-10  2.0000E-10   0.000       0.000       0.000       0.000       0.000       0.000       0.000       0.000    
   2   2.0000E-10  1.0000E-10  2.0000E-10   0.000       0.000      8.0000E-10  8.0000E-10  5.0000E-10   0.000       0.000    
   3    0.000      5.0000E-10  1.0000E-10  1.0000E-10  8.0000E-10  8.0000E-10  5.0000E-10  5.0000E-10   0.000       0.000    
   4   8.0000E-10  5.0000E-10  1.0000E-10  1.0000E-10  1.0000E-10  1.0000E-10  1.0000E-10  1.0000E-10  2.0000E-10   0.000    
   5   8.0000E-10  5.0000E-10  1.0000E-10  1.0000E-10  1.0000E-10  1.0000E-10  1.0000E-10  1.0000E-10  1.0000E-10  1.0000E-10
   6   8.0000E-10  5.0000E-10  5.0000E-10  2.0000E-10  2.0000E-10  1.0000E-10  1.0000E-10  1.0000E-10  1.0000E-10  5.0000E-10
   7   8.0000E-10  5.0000E-10  5.0000E-10  2.0000E-10  2.0000E-10  1.0000E-10  1.0000E-10  2.0000E-10  2.0000E-10   0.000    
   8    0.000      5.0000E-10  5.0000E-10  2.0000E-10  2.0000E-10  1.0000E-10  1.0000E-10  2.0000E-10  5.0000E-10   0.000    
   9    0.000      5.0000E-10  5.0000E-10  2.0000E-10  2.0000E-10  1.0000E-10  1.0000E-10  2.0000E-10  5.0000E-10   0.000    
  10    0.000      5.0000E-10  5.0000E-10  2.0000E-10  2.0000E-10  1.0000E-10  1.0000E-10  2.0000E-10  5.0000E-10  8.0000E-10
  11    0.000      1.0000E-10  1.0000E-10  1.0000E-10  1.0000E-10  1.0000E-10  1.0000E-10  2.0000E-10  5.0000E-10   0.000    
  12   1.0000E-10  1.0000E-10  1.0000E-10  1.0000E-10  1.0000E-10  1.0000E-10  1.0000E-10  1.0000E-10  2.0000E-10   0.000    
  13   1.0000E-10  1.0000E-10  2.0000E-10  2.0000E-10  2.0000E-10  2.0000E-10  2.0000E-10  1.0000E-10  1.0000E-10   0.000    
  14    0.000      2.0000E-10  5.0000E-10  5.0000E-10  5.0000E-10  5.0000E-10  5.0000E-10  2.0000E-10  1.0000E-10   0.000    
  15    0.000       0.000      8.0000E-10  8.0000E-10  8.0000E-10  8.0000E-10   0.000       0.000       0.000       0.000    

                  ET RATE =  5.000000E-10

 USING ET EXTINCTION DEPTH FROM PREVIOUS STRESS PERIOD. CURRENT PERIOD IS:      36

 USING EXTINCTION WATER CONTENT FROM PREVIOUS STRESS PERIOD. CURRENT PERIOD IS:      36

 USING AIR ENTRY PRESSURE FROM PREVIOUS STRESS PERIOD. CURRENT PERIOD IS:      36

 USING ROOT PRESSURE HEAD FROM PREVIOUS STRESS PERIOD. CURRENT PERIOD IS:      36

 USING ROOT ACTIVITY FROM PREVIOUS STRESS PERIOD. CURRENT PERIOD IS:      36

 PROCESSING AG STRESS PERIOD DATA

 READING AG STRESS PERIOD DATA

 READING IRRIGATION WELL

 NO IRRPOND OR REUSING IRRPOND DATA FROM LAST STRESS PERIOD

 END PROCESSING AG STRESS PERIOD DATA OPTIONS
 
 SOLVING FOR HEAD 
                                                   Max.-Head-Change                         Max.-Flux-Residual
  Residual-Control   Outer-Iter.   Inner-Iter.     Column Row Layer    Maximum-Head-Change  Column Row Layer    Maximum-Flux-Residual          L2-NORM 
          0                 1           2             4    7     1       0.5183533717E-01       4    7    1         0.2730485601E+01      0.5567881372E+01
          0                 2           2             4    7     1      -0.5042219590E-02       4    7    1        -0.2730522781E+00      0.5567899293E+00
          0                 3           2             4    7     1       0.3433559256E-03       4    7    1         0.1911363253E-01      0.3897525687E-01
          0                 4           1             4    7     1      -0.1366245586E-04       4    7    1        -0.7817488186E-03      0.1594086018E-02

    ------------------------------------------------
       NWT REQUIRED            4 OUTER ITERATIONS 
       AND A TOTAL OF          7 INNER ITERATIONS.
    ------------------------------------------------

 NO OUTPUT CONTROL FOR STRESS PERIOD   36   TIME STEP    1
 
 SOLVING FOR HEAD 
                                                   Max.-Head-Change                         Max.-Flux-Residual
  Residual-Control   Outer-Iter.   Inner-Iter.     Column Row Layer    Maximum-Head-Change  Column Row Layer    Maximum-Flux-Residual          L2-NORM 
          0                 1           2             4    7     1       0.5112826442E-01       4    7    1         0.2693232607E+01      0.5494561776E+01
          0                 2           2             4    7     1      -0.4973439489E-02       4    7    1        -0.2693268967E+00      0.5494579275E+00
          0                 3           2             4    7     1       0.3386722676E-03       4    7    1         0.1885285650E-01      0.3846201625E-01
          0                 4           1             4    7     1      -0.1347608903E-04       4    7    1        -0.7710830657E-03      0.1573099992E-02

    ------------------------------------------------
       NWT REQUIRED            4 OUTER ITERATIONS 
       AND A TOTAL OF          7 INNER ITERATIONS.
    ------------------------------------------------

 NO OUTPUT CONTROL FOR STRESS PERIOD   36   TIME STEP    2
 
 SOLVING FOR HEAD 
                                                   Max.-Head-Change                         Max.-Flux-Residual
  Residual-Control   Outer-Iter.   Inner-Iter.     Column Row Layer    Maximum-Head-Change  Column Row Layer    Maximum-Flux-Residual          L2-NORM 
          0                 1           2             4    7     1       0.5043124289E-01       4    7    1         0.2656499397E+01      0.5422896968E+01
          0                 2           2             4    7     1      -0.4905637108E-02       4    7    1        -0.2656534945E+00      0.5422913859E+00
          0                 3           2             4    7     1       0.3340551889E-03       4    7    1         0.1859571902E-01      0.3796035750E-01
          0                 4           1             4    7     1      -0.1329237105E-04       4    7    1        -0.7605661242E-03      0.1552580448E-02

    ------------------------------------------------
       NWT REQUIRED            4 OUTER ITERATIONS 
       AND A TOTAL OF          7 INNER ITERATIONS.
    ------------------------------------------------

 NO OUTPUT CONTROL FOR STRESS PERIOD   36   TIME STEP    3
 
 SOLVING FOR HEAD 
                                                   Max.-Head-Change                         Max.-Flux-Residual
  Residual-Control   Outer-Iter.   Inner-Iter.     Column Row Layer    Maximum-Head-Change  Column Row Layer    Maximum-Flux-Residual          L2-NORM 
          0                 1           2             4    7     1       0.4974414721E-01       4    7    1         0.2620280044E+01      0.5352830003E+01
          0                 2           2             4    7     1      -0.4838800251E-02       4    7    1        -0.2620314786E+00      0.5352846443E+00
          0                 3           2             4    7     1       0.3295038581E-03       4    7    1         0.1834217855E-01      0.3746988453E-01
          0                 4           1             4    7     1      -0.1311126912E-04       4    7    1        -0.7501962975E-03      0.1532545707E-02

    ------------------------------------------------
       NWT REQUIRED            4 OUTER ITERATIONS 
       AND A TOTAL OF          7 INNER ITERATIONS.
    ------------------------------------------------

 NO OUTPUT CONTROL FOR STRESS PERIOD   36   TIME STEP    4
 
 SOLVING FOR HEAD 
                                                   Max.-Head-Change                         Max.-Flux-Residual
  Residual-Control   Outer-Iter.   Inner-Iter.     Column Row Layer    Maximum-Head-Change  Column Row Layer    Maximum-Flux-Residual          L2-NORM 
          0                 1           2             4    7     1       0.4906710660E-01       4    7    1         0.2584582581E+01      0.5284307734E+01
          0                 2           2             4    7     1      -0.4772941492E-02       4    7    1        -0.2584616527E+00      0.5284323638E+00
          0                 3           2             4    7     1       0.3250191318E-03       4    7    1         0.1809229137E-01      0.3699021812E-01
          0                 4           1             4    7     1      -0.1293281766E-04       4    7    1        -0.7399758863E-03      0.1512913906E-02

    ------------------------------------------------
       NWT REQUIRED            4 OUTER ITERATIONS 
       AND A TOTAL OF          7 INNER ITERATIONS.
    ------------------------------------------------

 NO OUTPUT CONTROL FOR STRESS PERIOD   36   TIME STEP    5
 
 SOLVING FOR HEAD 
                                                   Max.-Head-Change                         Max.-Flux-Residual
  Residual-Control   Outer-Iter.   Inner-Iter.     Column Row Layer    Maximum-Head-Change  Column Row Layer    Maximum-Flux-Residual          L2-NORM 
          0                 1           2             4    7     1       0.4840010033E-01       4    7    1         0.2549406443E+01      0.5217278928E+01
          0                 2           2             4    7     1      -0.4708058815E-02       4    7    1        -0.2549439601E+00      0.5217294364E+00
          0                 3           2             4    7     1       0.3206008737E-03       4    7    1         0.1784605355E-01      0.3652101744E-01
          0                 4           1             4    7     1      -0.1275701090E-04       4    7    1        -0.7299047481E-03      0.1493709278E-02

    ------------------------------------------------
       NWT REQUIRED            4 OUTER ITERATIONS 
       AND A TOTAL OF          7 INNER ITERATIONS.
    ------------------------------------------------

 NO OUTPUT CONTROL FOR STRESS PERIOD   36   TIME STEP    6
 
 SOLVING FOR HEAD 
                                                   Max.-Head-Change                         Max.-Flux-Residual
  Residual-Control   Outer-Iter.   Inner-Iter.     Column Row Layer    Maximum-Head-Change  Column Row Layer    Maximum-Flux-Residual          L2-NORM 
          0                 1           2             4    7     1       0.4774309149E-01       4    7    1         0.2514750554E+01      0.5151701630E+01
          0                 2           2             4    7     1      -0.4644148631E-02       4    7    1        -0.2514782937E+00      0.5151716509E+00
          0                 3           2             4    7     1       0.3162488379E-03       4    7    1         0.1760345750E-01      0.3606197714E-01
          0                 4           1             4    7     1      -0.1258383931E-04       4    7    1        -0.7199825498E-03      0.1474932547E-02

    ------------------------------------------------
       NWT REQUIRED            4 OUTER ITERATIONS 
       AND A TOTAL OF          7 INNER ITERATIONS.
    ------------------------------------------------

 NO OUTPUT CONTROL FOR STRESS PERIOD   36   TIME STEP    7
 
 SOLVING FOR HEAD 
                                                   Max.-Head-Change                         Max.-Flux-Residual
  Residual-Control   Outer-Iter.   Inner-Iter.     Column Row Layer    Maximum-Head-Change  Column Row Layer    Maximum-Flux-Residual          L2-NORM 
          0                 1           2             4    7     1       0.4709603216E-01       4    7    1         0.2480613001E+01      0.5087521739E+01
          0                 2           2             4    7     1      -0.4581206280E-02       4    7    1        -0.2480644619E+00      0.5087535343E+00
          0                 3           2             4    7     1       0.3119627083E-03       4    7    1         0.1736448991E-01      0.3561270480E-01
          0                 4           1             4    7     1      -0.1241329020E-04       4    7    1        -0.7102087607E-03      0.1456562723E-02

    ------------------------------------------------
       NWT REQUIRED            4 OUTER ITERATIONS 
       AND A TOTAL OF          7 INNER ITERATIONS.
    ------------------------------------------------

 NO OUTPUT CONTROL FOR STRESS PERIOD   36   TIME STEP    8
 
 SOLVING FOR HEAD 
                                                   Max.-Head-Change                         Max.-Flux-Residual
  Residual-Control   Outer-Iter.   Inner-Iter.     Column Row Layer    Maximum-Head-Change  Column Row Layer    Maximum-Flux-Residual          L2-NORM 
          0                 1           2             4    7     1       0.4645886297E-01       4    7    1         0.2446991300E+01      0.5024696553E+01
          0                 2           2             4    7     1      -0.4519225988E-02       4    7    1        -0.2447022166E+00      0.5024710444E+00
          0                 3           2             4    7     1       0.3077420910E-03       4    7    1         0.1712913335E-01      0.3517292979E-01
          0                 4           1             4    7     1      -0.1224534804E-04       4    7    1        -0.7005826640E-03      0.1438574750E-02

    ------------------------------------------------
       NWT REQUIRED            4 OUTER ITERATIONS 
       AND A TOTAL OF          7 INNER ITERATIONS.
    ------------------------------------------------

 NO OUTPUT CONTROL FOR STRESS PERIOD   36   TIME STEP    9
 
 SOLVING FOR HEAD 
                                                   Max.-Head-Change                         Max.-Flux-Residual
  Residual-Control   Outer-Iter.   Inner-Iter.     Column Row Layer    Maximum-Head-Change  Column Row Layer    Maximum-Flux-Residual          L2-NORM 
          0                 1           2             4    7     1       0.4583165210E-01       4    7    1         0.2413889646E+01      0.4963192814E+01
          0                 2           2             4    7     1      -0.4458214386E-02       4    7    1        -0.2413919772E+00      0.4963206122E+00
          0                 3           2             4    7     1       0.3035874381E-03       4    7    1         0.1689741721E-01      0.3474239064E-01
          0                 4           1             4    7     1      -0.1208003033E-04       4    7    1        -0.6911054550E-03      0.1420961521E-02

    ------------------------------------------------
       NWT REQUIRED            4 OUTER ITERATIONS 
       AND A TOTAL OF          7 INNER ITERATIONS.
    ------------------------------------------------

 NO OUTPUT CONTROL FOR STRESS PERIOD   36   TIME STEP   10
 
 SOLVING FOR HEAD 
                                                   Max.-Head-Change                         Max.-Flux-Residual
  Residual-Control   Outer-Iter.   Inner-Iter.     Column Row Layer    Maximum-Head-Change  Column Row Layer    Maximum-Flux-Residual          L2-NORM 
          0                 1           2             4    7     1       0.4521431542E-01       4    7    1         0.2381304302E+01      0.4902963764E+01
          0                 2           2             4    7     1      -0.4398163293E-02       4    7    1        -0.2381333701E+00      0.4902976630E+00
          0                 3           2             4    7     1       0.2994981916E-03       4    7    1         0.1666931529E-01      0.3432078936E-01
          0                 4           1             4    7     1      -0.1191731578E-04       4    7    1        -0.6817760823E-03      0.1403719300E-02

    ------------------------------------------------
       NWT REQUIRED            4 OUTER ITERATIONS 
       AND A TOTAL OF          7 INNER ITERATIONS.
    ------------------------------------------------

 NO OUTPUT CONTROL FOR STRESS PERIOD   36   TIME STEP   11
 
 SOLVING FOR HEAD 
                                                   Max.-Head-Change                         Max.-Flux-Residual
  Residual-Control   Outer-Iter.   Inner-Iter.     Column Row Layer    Maximum-Head-Change  Column Row Layer    Maximum-Flux-Residual          L2-NORM 
          0                 1           2             4    7     1       0.4460663064E-01       4    7    1         0.2349223634E+01      0.4843970161E+01
          0                 2           2             4    7     1      -0.4339051087E-02       4    7    1        -0.2349252320E+00      0.4843982515E+00
          0                 3           2             4    7     1       0.2954728796E-03       4    7    1         0.1644474619E-01      0.3390782674E-01
          0                 4           1             4    7     1      -0.1175714427E-04       4    7    1        -0.6725911821E-03      0.1386839289E-02

    ------------------------------------------------
       NWT REQUIRED            4 OUTER ITERATIONS 
       AND A TOTAL OF          7 INNER ITERATIONS.
    ------------------------------------------------

 NO OUTPUT CONTROL FOR STRESS PERIOD   36   TIME STEP   12
 
 SOLVING FOR HEAD 
                                                   Max.-Head-Change                         Max.-Flux-Residual
  Residual-Control   Outer-Iter.   Inner-Iter.     Column Row Layer    Maximum-Head-Change  Column Row Layer    Maximum-Flux-Residual          L2-NORM 
          0                 1           2             4    7     1       0.4400877220E-01       4    7    1         0.2317657938E+01      0.4786183910E+01
          0                 2           2             4    7     1      -0.4280894736E-02       4    7    1        -0.2317685924E+00      0.4786195757E+00
          0                 3           2             4    7     1       0.2915126580E-03       4    7    1         0.1622378201E-01      0.3350332171E-01
          0                 4           1             4    7     1      -0.1159956348E-04       4    7    1        -0.6635537309E-03      0.1370285445E-02

    ------------------------------------------------
       NWT REQUIRED            4 OUTER ITERATIONS 
       AND A TOTAL OF          7 INNER ITERATIONS.
    ------------------------------------------------

 NO OUTPUT CONTROL FOR STRESS PERIOD   36   TIME STEP   13
 
 SOLVING FOR HEAD 
                                                   Max.-Head-Change                         Max.-Flux-Residual
  Residual-Control   Outer-Iter.   Inner-Iter.     Column Row Layer    Maximum-Head-Change  Column Row Layer    Maximum-Flux-Residual          L2-NORM 
          0                 1           2             4    7     1       0.4342036721E-01       4    7    1         0.2286587161E+01      0.4729567691E+01
          0                 2           2             4    7     1      -0.4223657966E-02       4    7    1        -0.2286614460E+00      0.4729578949E+00
          0                 3           2             4    7     1       0.2876150558E-03       4    7    1         0.1600628231E-01      0.3310700113E-01
          0                 4           1             4    7     1      -0.1144447417E-04       4    7    1        -0.6546579793E-03      0.1354075538E-02

    ------------------------------------------------
       NWT REQUIRED            4 OUTER ITERATIONS 
       AND A TOTAL OF          7 INNER ITERATIONS.
    ------------------------------------------------

 NO OUTPUT CONTROL FOR STRESS PERIOD   36   TIME STEP   14
 
 SOLVING FOR HEAD 
                                                   Max.-Head-Change                         Max.-Flux-Residual
  Residual-Control   Outer-Iter.   Inner-Iter.     Column Row Layer    Maximum-Head-Change  Column Row Layer    Maximum-Flux-Residual          L2-NORM 
          0                 1           2             4    7     1       0.4284157647E-01       4    7    1         0.2256021070E+01      0.4674077758E+01
          0                 2           2             4    7     1      -0.4167356423E-02       4    7    1        -0.2256047697E+00      0.4674088609E+00
          0                 3           2             4    7     1       0.2837811395E-03       4    7    1         0.1579231552E-01      0.3271856688E-01
          0                 4           1             4    7     1      -0.1129191905E-04       4    7    1        -0.6459067381E-03      0.1338192977E-02

    ------------------------------------------------
       NWT REQUIRED            4 OUTER ITERATIONS 
       AND A TOTAL OF          7 INNER ITERATIONS.
    ------------------------------------------------

 NO OUTPUT CONTROL FOR STRESS PERIOD   36   TIME STEP   15
 
 SOLVING FOR HEAD 
                                                   Max.-Head-Change                         Max.-Flux-Residual
  Residual-Control   Outer-Iter.   Inner-Iter.     Column Row Layer    Maximum-Head-Change  Column Row Layer    Maximum-Flux-Residual          L2-NORM 
          0                 1           2             4    7     1       0.4227214786E-01       4    7    1         0.2225946176E+01      0.4619691010E+01
          0                 2           2             4    7     1      -0.4111965579E-02       4    7    1        -0.2225972146E+00      0.4619701454E+00
          0                 3           2             4    7     1       0.2800092373E-03       4    7    1         0.1558178717E-01      0.3233786271E-01
          0                 4           1             4    7     1      -0.1114183123E-04       4    7    1        -0.6372960977E-03      0.1322622300E-02

    ------------------------------------------------
       NWT REQUIRED            4 OUTER ITERATIONS 
       AND A TOTAL OF          7 INNER ITERATIONS.
    ------------------------------------------------

 NO OUTPUT CONTROL FOR STRESS PERIOD   36   TIME STEP   16
 
 SOLVING FOR HEAD 
                                                   Max.-Head-Change                         Max.-Flux-Residual
  Residual-Control   Outer-Iter.   Inner-Iter.     Column Row Layer    Maximum-Head-Change  Column Row Layer    Maximum-Flux-Residual          L2-NORM 
          0                 1           2             4    7     1       0.4171210233E-01       4    7    1         0.2196363961E+01      0.4566382489E+01
          0                 2           2             4    7     1      -0.4057487475E-02       4    7    1        -0.2196389287E+00      0.4566392524E+00
          0                 3           2             4    7     1       0.2762994898E-03       4    7    1         0.1537470769E-01      0.3196469531E-01
          0                 4           1             4    7     1      -0.1099421704E-04       4    7    1        -0.6288265283E-03      0.1307346092E-02

    ------------------------------------------------
       NWT REQUIRED            4 OUTER ITERATIONS 
       AND A TOTAL OF          7 INNER ITERATIONS.
    ------------------------------------------------

 NO OUTPUT CONTROL FOR STRESS PERIOD   36   TIME STEP   17
 
 SOLVING FOR HEAD 
                                                   Max.-Head-Change                         Max.-Flux-Residual
  Residual-Control   Outer-Iter.   Inner-Iter.     Column Row Layer    Maximum-Head-Change  Column Row Layer    Maximum-Flux-Residual          L2-NORM 
          0                 1           2             4    7     1       0.4116117266E-01       4    7    1         0.2167260956E+01      0.4514103805E+01
          0                 2           2             4    7     1      -0.4003896115E-02       4    7    1        -0.2167285653E+00      0.4514113366E+00
          0                 3           2             4    7     1       0.2726501258E-03       4    7    1         0.1517098275E-01      0.3159874293E-01
          0                 4           1             4    7     1      -0.1084900533E-04       4    7    1        -0.6204941619E-03      0.1292389507E-02

    ------------------------------------------------
       NWT REQUIRED            4 OUTER ITERATIONS 
       AND A TOTAL OF          7 INNER ITERATIONS.
    ------------------------------------------------

 NO OUTPUT CONTROL FOR STRESS PERIOD   36   TIME STEP   18
 
 SOLVING FOR HEAD 
                                                   Max.-Head-Change                         Max.-Flux-Residual
  Residual-Control   Outer-Iter.   Inner-Iter.     Column Row Layer    Maximum-Head-Change  Column Row Layer    Maximum-Flux-Residual          L2-NORM 
          0                 1           2             4    7     1       0.4061937234E-01       4    7    1         0.2138637863E+01      0.4462845958E+01
          0                 2           2             4    7     1      -0.3951192813E-02       4    7    1        -0.2138661944E+00      0.4462854965E+00
          0                 3           2             4    7     1       0.2690612350E-03       4    7    1         0.1497061727E-01      0.3123993407E-01
          0                 4           1             4    7     1      -0.1070620002E-04       4    7    1        -0.6122992029E-03      0.1277721252E-02

    ------------------------------------------------
       NWT REQUIRED            4 OUTER ITERATIONS 
       AND A TOTAL OF          7 INNER ITERATIONS.
    ------------------------------------------------

 NO OUTPUT CONTROL FOR STRESS PERIOD   36   TIME STEP   19
 
 SOLVING FOR HEAD 
                                                   Max.-Head-Change                         Max.-Flux-Residual
  Residual-Control   Outer-Iter.   Inner-Iter.     Column Row Layer    Maximum-Head-Change  Column Row Layer    Maximum-Flux-Residual          L2-NORM 
          0                 1           2             4    7     1       0.4008656654E-01       4    7    1         0.2110488103E+01      0.4412563780E+01
          0                 2           2             4    7     1      -0.3899364455E-02       4    7    1        -0.2110511583E+00      0.4412572401E+00
          0                 3           2             4    7     1       0.2655319250E-03       4    7    1         0.1477356526E-01      0.3088795614E-01
          0                 4           1             4    7     1      -0.1056576541E-04       4    7    1        -0.6042397627E-03      0.1263316455E-02

    ------------------------------------------------
       NWT REQUIRED            4 OUTER ITERATIONS 
       AND A TOTAL OF          7 INNER ITERATIONS.
    ------------------------------------------------

 NO OUTPUT CONTROL FOR STRESS PERIOD   36   TIME STEP   20
 
 SOLVING FOR HEAD 
                                                   Max.-Head-Change                         Max.-Flux-Residual
  Residual-Control   Outer-Iter.   Inner-Iter.     Column Row Layer    Maximum-Head-Change  Column Row Layer    Maximum-Flux-Residual          L2-NORM 
          0                 1           2             4    7     1       0.3956262383E-01       4    7    1         0.2082804687E+01      0.4363245170E+01
          0                 2           2             4    7     1      -0.3848398253E-02       4    7    1        -0.2082827579E+00      0.4363253321E+00
          0                 3           2             4    7     1       0.2620613242E-03       4    7    1         0.1457977770E-01      0.3054271510E-01
          0                 4           1             4    7     1      -0.1042766732E-04       4    7    1        -0.5963138531E-03      0.1249193655E-02

    ------------------------------------------------
       NWT REQUIRED            4 OUTER ITERATIONS 
       AND A TOTAL OF          7 INNER ITERATIONS.
    ------------------------------------------------

 NO OUTPUT CONTROL FOR STRESS PERIOD   36   TIME STEP   21
 
 SOLVING FOR HEAD 
                                                   Max.-Head-Change                         Max.-Flux-Residual
  Residual-Control   Outer-Iter.   Inner-Iter.     Column Row Layer    Maximum-Head-Change  Column Row Layer    Maximum-Flux-Residual          L2-NORM 
          0                 1           2             4    7     1       0.3904741061E-01       4    7    1         0.2055580799E+01      0.4314863186E+01
          0                 2           2             4    7     1      -0.3798281211E-02       4    7    1        -0.2055603118E+00      0.4314870898E+00
          0                 3           2             4    7     1       0.2586485474E-03       4    7    1         0.1438920691E-01      0.3020404452E-01
          0                 4           1             4    7     1      -0.1029186948E-04       4    7    1        -0.5885194905E-03      0.1235343343E-02

    ------------------------------------------------
       NWT REQUIRED            4 OUTER ITERATIONS 
       AND A TOTAL OF          7 INNER ITERATIONS.
    ------------------------------------------------

 NO OUTPUT CONTROL FOR STRESS PERIOD   36   TIME STEP   22
 
 SOLVING FOR HEAD 
                                                   Max.-Head-Change                         Max.-Flux-Residual
  Residual-Control   Outer-Iter.   Inner-Iter.     Column Row Layer    Maximum-Head-Change  Column Row Layer    Maximum-Flux-Residual          L2-NORM 
          0                 1           2             4    7     1       0.3854091892E-01       4    7    1         0.2028816795E+01      0.4267386916E+01
          0                 2           2             4    7     1      -0.3749012558E-02       4    7    1        -0.2028838554E+00      0.4267394257E+00
          0                 3           2             4    7     1       0.2552935430E-03       4    7    1         0.1420185543E-01      0.2987171164E-01
          0                 4           1             4    7     1      -0.1015837085E-04       4    7    1        -0.5808568030E-03      0.1221752183E-02

    ------------------------------------------------
       NWT REQUIRED            4 OUTER ITERATIONS 
       AND A TOTAL OF          7 INNER ITERATIONS.
    ------------------------------------------------

 NO OUTPUT CONTROL FOR STRESS PERIOD   36   TIME STEP   23
 
 SOLVING FOR HEAD 
                                                   Max.-Head-Change                         Max.-Flux-Residual
  Residual-Control   Outer-Iter.   Inner-Iter.     Column Row Layer    Maximum-Head-Change  Column Row Layer    Maximum-Flux-Residual          L2-NORM 
          0                 1           2             4    7     1       0.3804287384E-01       4    7    1         0.2002497699E+01      0.4220794769E+01
          0                 2           2             4    7     1      -0.3700565550E-02       4    7    1        -0.2002518912E+00      0.4220801788E+00
          0                 3           2             4    7     1       0.2519944889E-03       4    7    1         0.1401761837E-01      0.2954557249E-01
          0                 4           1             4    7     1      -0.1002709787E-04       4    7    1        -0.5733214721E-03      0.1208420681E-02

    ------------------------------------------------
       NWT REQUIRED            4 OUTER ITERATIONS 
       AND A TOTAL OF          7 INNER ITERATIONS.
    ------------------------------------------------

 NO OUTPUT CONTROL FOR STRESS PERIOD   36   TIME STEP   24
 
 SOLVING FOR HEAD 
                                                   Max.-Head-Change                         Max.-Flux-Residual
  Residual-Control   Outer-Iter.   Inner-Iter.     Column Row Layer    Maximum-Head-Change  Column Row Layer    Maximum-Flux-Residual          L2-NORM 
          0                 1           2             4    7     1       0.3755326755E-01       4    7    1         0.1976623822E+01      0.4175065417E+01
          0                 2           2             4    7     1      -0.3652939425E-02       4    7    1        -0.1976644502E+00      0.4175071749E+00
          0                 3           2             4    7     1       0.2487513343E-03       4    7    1         0.1383649793E-01      0.2922543483E-01
          0                 4           1             4    7     1      -0.9898049851E-05       4    7    1        -0.5659136521E-03      0.1195315799E-02

    ------------------------------------------------
       NWT REQUIRED            4 OUTER ITERATIONS 
       AND A TOTAL OF          7 INNER ITERATIONS.
    ------------------------------------------------

 NO OUTPUT CONTROL FOR STRESS PERIOD   36   TIME STEP   25
 
 SOLVING FOR HEAD 
                                                   Max.-Head-Change                         Max.-Flux-Residual
  Residual-Control   Outer-Iter.   Inner-Iter.     Column Row Layer    Maximum-Head-Change  Column Row Layer    Maximum-Flux-Residual          L2-NORM 
          0                 1           2             4    7     1       0.3707182673E-01       4    7    1         0.1951180194E+01      0.4130172448E+01
          0                 2           2             4    7     1      -0.3606107565E-02       4    7    1        -0.1951200354E+00      0.4129969815E+00
          0                 3           2             4    7     1       0.2455622655E-03       4    7    1         0.1365838929E-01      0.2890973855E-01
          0                 4           1             4    7     1      -0.9771153792E-05       4    7    1        -0.5586289915E-03      0.1182411190E-02

    ------------------------------------------------
       NWT REQUIRED            4 OUTER ITERATIONS 
       AND A TOTAL OF          7 INNER ITERATIONS.
    ------------------------------------------------

 NO OUTPUT CONTROL FOR STRESS PERIOD   36   TIME STEP   26
 
 SOLVING FOR HEAD 
                                                   Max.-Head-Change                         Max.-Flux-Residual
  Residual-Control   Outer-Iter.   Inner-Iter.     Column Row Layer    Maximum-Head-Change  Column Row Layer    Maximum-Flux-Residual          L2-NORM 
          0                 1           2             4    7     1       0.3659854450E-01       4    7    1         0.1926167209E+01      0.4086118583E+01
          0                 2           2             4    7     1      -0.3560069211E-02       4    7    1        -0.1926186863E+00      0.4085980578E+00
          0                 3           2             4    7     1       0.2424272317E-03       4    7    1         0.1348329526E-01      0.2860180191E-01
          0                 4           1             4    7     1      -0.9646408087E-05       4    7    1        -0.5514676377E-03      0.1169817941E-02

    ------------------------------------------------
       NWT REQUIRED            4 OUTER ITERATIONS 
       AND A TOTAL OF          7 INNER ITERATIONS.
    ------------------------------------------------

 NO OUTPUT CONTROL FOR STRESS PERIOD   36   TIME STEP   27
 
 SOLVING FOR HEAD 
                                                   Max.-Head-Change                         Max.-Flux-Residual
  Residual-Control   Outer-Iter.   Inner-Iter.     Column Row Layer    Maximum-Head-Change  Column Row Layer    Maximum-Flux-Residual          L2-NORM 
          0                 1           2             4    7     1       0.3613327960E-01       4    7    1         0.1901577235E+01      0.4042873566E+01
          0                 2           2             4    7     1      -0.3514811082E-02       4    7    1        -0.1901596395E+00      0.4042879226E+00
          0                 3           2             4    7     1       0.2393453281E-03       4    7    1         0.1331116239E-01      0.2830008939E-01
          0                 4           1             4    7     1      -0.9523776124E-05       4    7    1        -0.5444273909E-03      0.1157471828E-02

    ------------------------------------------------
       NWT REQUIRED            4 OUTER ITERATIONS 
       AND A TOTAL OF          7 INNER ITERATIONS.
    ------------------------------------------------

 NO OUTPUT CONTROL FOR STRESS PERIOD   36   TIME STEP   28
 
 SOLVING FOR HEAD 
                                                   Max.-Head-Change                         Max.-Flux-Residual
  Residual-Control   Outer-Iter.   Inner-Iter.     Column Row Layer    Maximum-Head-Change  Column Row Layer    Maximum-Flux-Residual          L2-NORM 
          0                 1           2             4    7     1       0.3567588957E-01       4    7    1         0.1877402923E+01      0.4000457219E+01
          0                 2           2             4    7     1      -0.3470318796E-02       4    7    1        -0.1877421601E+00      0.4000462575E+00
          0                 3           2             4    7     1       0.2363155750E-03       4    7    1         0.1314193920E-01      0.2800318022E-01
          0                 4           1             4    7     1      -0.9403219221E-05       4    7    1        -0.5375061401E-03      0.1145329860E-02

    ------------------------------------------------
       NWT REQUIRED            4 OUTER ITERATIONS 
       AND A TOTAL OF          7 INNER ITERATIONS.
    ------------------------------------------------

 NO OUTPUT CONTROL FOR STRESS PERIOD   36   TIME STEP   29
 
 SOLVING FOR HEAD 
                                                   Max.-Head-Change                         Max.-Flux-Residual
  Residual-Control   Outer-Iter.   Inner-Iter.     Column Row Layer    Maximum-Head-Change  Column Row Layer    Maximum-Flux-Residual          L2-NORM 
          0                 1           2             4    7     1       0.3522636448E-01       4    7    1         0.1853644200E+01      0.3958800096E+01
          0                 2           2             4    7     1      -0.3426591573E-02       4    7    1        -0.1853662409E+00      0.3958805186E+00
          0                 3           2             4    7     1       0.2333379199E-03       4    7    1         0.1297562523E-01      0.2771157387E-01
          0                 4           1             4    7     1      -0.9284735306E-05       4    7    1        -0.5307038914E-03      0.1133400054E-02

    ------------------------------------------------
       NWT REQUIRED            4 OUTER ITERATIONS 
       AND A TOTAL OF          7 INNER ITERATIONS.
    ------------------------------------------------

 NO OUTPUT CONTROL FOR STRESS PERIOD   36   TIME STEP   30



 STREAM LISTING     PERIOD     36   STEP       30

 LAYER ROW COL. STREAM  RCH.  FLOW INTO     FLOW TO   FLOW OUT OF   OVRLND.     DIRECT     STREAM       STREAM     STREAM     STREAM   STREAMBED  STREAMBED
                SEG.NO.  NO.  STRM. RCH.    AQUIFER    STRM. RCH.    RUNOFF     PRECIP       ET          HEAD       DEPTH      WIDTH   CONDCTNC.   GRADIENT

   1    1    1     1     1    1.9000E+01  2.1427E-01   1.8786E+01  0.000E+00  0.000E+00  0.000E+00  1.09413E+03  1.082E+00  1.166E+01  5.249E-02  1.361E+00
   1    2    2     1     2    1.8786E+01  3.3054E-01   1.8455E+01  0.000E+00  0.000E+00  0.000E+00  1.08914E+03  1.077E+00  1.158E+01  8.107E-02  1.359E+00
   1    3    3     1     3    1.8455E+01  2.8064E-01   1.8175E+01  0.000E+00  0.000E+00  0.000E+00  1.08349E+03  1.072E+00  1.149E+01  6.892E-02  1.357E+00
   1    3    4     1     4    1.8175E+01  2.5740E-01   1.7917E+01  0.000E+00  0.000E+00  0.000E+00  1.07848E+03  1.068E+00  1.140E+01  6.328E-02  1.356E+00
   1    4    5     2     1    1.5917E+01  3.0542E-01   1.5612E+01  0.000E+00  0.000E+00  0.000E+00  1.07285E+03  9.157E-01  1.200E+01  7.800E-02  1.305E+00
   1    5    6     2     2    1.5612E+01  2.3438E-01   1.5377E+01  0.000E+00  0.000E+00  0.000E+00  1.06742E+03  9.063E-01  1.200E+01  6.000E-02  1.302E+00
   1    6    6     2     3    1.5377E+01  2.3388E-01   1.5143E+01  0.000E+00  0.000E+00  0.000E+00  1.06269E+03  8.980E-01  1.200E+01  6.000E-02  1.299E+00
   1    7    6     2     4    1.5143E+01  2.3338E-01   1.4910E+01  0.000E+00  0.000E+00  0.000E+00  1.05797E+03  8.897E-01  1.200E+01  6.000E-02  1.297E+00
   1    8    6     2     5    1.4910E+01  2.3289E-01   1.4677E+01  0.000E+00  0.000E+00  0.000E+00  1.05324E+03  8.814E-01  1.200E+01  6.000E-02  1.294E+00
   1    3    5     3     1    2.0000E+00  2.8252E-01   1.7175E+00  0.000E+00  0.000E+00  0.000E+00  1.07555E+03  1.909E+00  9.636E+00  7.227E-02  1.955E+00
   1    3    6     3     2    1.7175E+00  2.4905E-01   1.4684E+00  0.000E+00  0.000E+00  0.000E+00  1.07264E+03  1.727E+00  8.909E+00  6.682E-02  1.864E+00
   1    3    7     3     3    1.4684E+00  1.9718E-01   1.2712E+00  0.000E+00  0.000E+00  0.000E+00  1.06987E+03  1.555E+00  8.218E+00  5.547E-02  1.777E+00
   1    4    8     3     4    1.2712E+00  2.2567E-01   1.0456E+00  0.000E+00  0.000E+00  0.000E+00  1.06682E+03  1.364E+00  7.455E+00  6.709E-02  1.682E+00
   1    5    8     3     5    1.0456E+00  1.5790E-01   8.8768E-01  0.000E+00  0.000E+00  0.000E+00  1.06362E+03  1.164E+00  6.655E+00  4.991E-02  1.582E+00
   1    6    8     3     6    8.8768E-01  5.5980E-02   8.3170E-01  0.000E+00  0.000E+00  0.000E+00  1.06158E+03  1.036E+00  6.145E+00  1.844E-02  1.518E+00
   1    5   10     4     1    1.0000E+01  9.0919E-02   9.9091E+00  0.000E+00  0.000E+00  0.000E+00  1.07836E+03  6.368E-01  1.000E+01  2.500E-02  1.212E+00
   1    5    9     4     2    9.9091E+00  1.8158E-01   9.7275E+00  0.000E+00  0.000E+00  0.000E+00  1.07154E+03  6.315E-01  1.000E+01  5.000E-02  1.211E+00
   1    6    8     4     3    9.7275E+00  1.2689E-01   9.6006E+00  0.000E+00  0.000E+00  0.000E+00  1.06381E+03  6.256E-01  1.000E+01  3.500E-02  1.209E+00
   1    6    8     5     1    1.0432E+01  2.2686E-01   1.0205E+01  0.000E+00  0.000E+00  0.000E+00  1.05868E+03  6.790E-01  1.542E+01  6.166E-02  1.226E+00
   1    7    7     5     2    1.0205E+01  2.7894E-01   9.9265E+00  0.000E+00  0.000E+00  0.000E+00  1.05417E+03  6.732E-01  1.519E+01  7.594E-02  1.224E+00
   1    8    7     5     3    9.9265E+00  1.9221E-01   9.7343E+00  0.000E+00  0.000E+00  0.000E+00  1.04992E+03  6.676E-01  1.497E+01  5.241E-02  1.223E+00
   1    8    6     5     4    9.7343E+00  1.3577E-01   9.5985E+00  0.000E+00  0.000E+00  0.000E+00  1.04691E+03  6.637E-01  1.482E+01  3.706E-02  1.221E+00
   1    9    6     6     1    2.4276E+01  2.5176E-01   2.4024E+01  0.000E+00  0.000E+00  0.000E+00  1.04392E+03  1.196E+00  1.200E+01  6.000E-02  1.399E+00
   1   10    7     6     2    2.4024E+01  2.5131E-01   2.3773E+01  0.000E+00  0.000E+00  0.000E+00  1.03937E+03  1.188E+00  1.200E+01  6.000E-02  1.396E+00
   1   11    7     6     3    2.3773E+01  2.5086E-01   2.3522E+01  0.000E+00  0.000E+00  0.000E+00  1.03482E+03  1.181E+00  1.200E+01  6.000E-02  1.394E+00
   1   12    7     6     4    2.3522E+01  2.5041E-01   2.3271E+01  0.000E+00  0.000E+00  0.000E+00  1.03026E+03  1.173E+00  1.200E+01  6.000E-02  1.391E+00
   1   13    7     6     5    2.3271E+01  7.9942E-03   2.3263E+01  0.000E+00  0.000E+00  0.000E+00  1.02708E+03  1.170E+00  1.200E+01  2.400E-02  1.110E-01
   1   14    9     7     1    1.5000E+02  1.3576E+00   1.4864E+02  0.000E+00  0.000E+00  0.000E+00  1.03987E+03  2.288E+00  5.529E+01  5.593E-01  8.091E-01
   1   13    8     7     2    1.4864E+02  1.9294E+00   1.4671E+02  0.000E+00  0.000E+00  0.000E+00  1.03478E+03  2.279E+00  5.526E+01  6.148E-01  1.046E+00
   1   13    7     7     3    1.4671E+02  1.6435E+00   1.4507E+02  0.000E+00  0.000E+00  0.000E+00  1.02969E+03  2.269E+00  5.521E+01  5.584E-01  9.811E-01
   1   13    6     8     1    1.6833E+02  1.0848E+00   1.6725E+02  0.000E+00  0.000E+00  0.000E+00  1.02481E+03  2.938E+00  4.260E+01  4.341E-01  8.330E-01
   1   13    5     8     2    1.6725E+02  3.3152E-01   1.6692E+02  0.000E+00  0.000E+00  0.000E+00  1.01856E+03  2.933E+00  4.253E+01  4.334E-01  2.550E-01
   1   13    4     8     3    1.6692E+02 -1.9021E+00   1.6882E+02  0.000E+00  0.000E+00  0.000E+00  1.01231E+03  2.938E+00  4.260E+01  4.342E+00 -1.460E-01
   1   13    3     8     4    1.6882E+02 -3.3972E+00   1.7222E+02  0.000E+00  0.000E+00  0.000E+00  1.00608E+03  2.956E+00  4.286E+01  4.367E+00 -2.593E-01
   1   13    2     8     5    1.7222E+02 -2.5169E+00   1.7473E+02  0.000E+00  0.000E+00  0.000E+00  9.99850E+02  2.975E+00  4.313E+01  4.395E+00 -1.909E-01
   1   13    1     8     6    1.7473E+02 -1.9672E+00   1.7670E+02  0.000E+00  0.000E+00  0.000E+00  9.94864E+02  2.989E+00  4.334E+01  2.650E+00 -2.474E-01





UNSATURATED ZONE PACKAGE VOLUMETRIC BUDGET FOR  TIME STEP    30 STRESS PERIOD   36
  ------------------------------------------------------------------------------



     CUMULATIVE VOLUMES      L**3       RATES FOR THIS TIME STEP      L**3/T
     ------------------                 ------------------------

           IN:                                      IN:
           ---                                      ---
        INFILTRATION =  1289785476.0884          INFILTRATION =           0.8475

          OUT:                                     OUT:
          ----                                     ----
              UZF ET =  1288690172.1665                UZF ET =           0.7500
        UZF RECHARGE =       73224.0000          UZF RECHARGE =       0.0000E+00

            IN - OUT =     1022079.9219              IN - OUT =       9.7500E-02

          STORAGE:                                 STORAGE:
          --------                                 --------
      STORAGE CHANGE =     1022071.4753        STORAGE CHANGE =       9.7500E-02

 PERCENT DISCREPANCY IS DIFFERENCE BETWEEN IN-OUT MINUS CHANGE IN STORAGE
 DIVIDED BY THE AVERAGE OF IN AND OUT TIMES 100

 PERCENT DISCREPANCY =           0.00     PERCENT DISCREPANCY =           0.00






1
  VOLUMETRIC BUDGET FOR AGRICULTURAL FIELDS AT  END OF TIME STEP   30, STRESS PERIOD  36
  ------------------------------------------------------------------------------

     CUMULATIVE VOLUMES      L**3       RATES FOR THIS TIME STEP      L**3/T
     ------------------                 ------------------------

           IN:                                      IN:
           ---                                      ---
               AG WELLS  =  1211695232.0000                 AG WELLS  =           0.0000
      DIVERSION SEGMENTS =           0.0000        DIVERSION SEGMENTS =           0.0000
       IRRIGATION PONDS  =           0.0000         IRRIGATION PONDS  =           0.0000
           GW IRRIGATION =           0.0000             GW IRRIGATION =           0.0000
           SW IRRIGATION =           0.0000             SW IRRIGATION =           0.0000
        SYSTEM LOSSES GW =           0.0000          SYSTEM LOSSES GW =           0.0000
        SYSTEM LOSSES SW =           0.0000          SYSTEM LOSSES SW =           0.0000

                TOTAL IN =  1211695232.0000                  TOTAL IN =           0.0000

          OUT:                                     OUT:
          ----                                     ----
               AG WELLS  =           0.0000                 AG WELLS  =           0.0000
      DIVERSION SEGMENTS =           0.0000        DIVERSION SEGMENTS =           0.0000
       IRRIGATION PONDS  =           0.0000         IRRIGATION PONDS  =           0.0000
           GW IRRIGATION =  1211695232.0000             GW IRRIGATION =           0.0000
           SW IRRIGATION =           0.0000             SW IRRIGATION =           0.0000
        SYSTEM LOSSES GW =           0.0000          SYSTEM LOSSES GW =           0.0000
        SYSTEM LOSSES SW =           0.0000          SYSTEM LOSSES SW =           0.0000

               TOTAL OUT =  1211695232.0000                 TOTAL OUT =           0.0000

                IN - OUT =           0.0000                  IN - OUT =           0.0000

     PERCENT DISCREPANCY =           0.00         PERCENT DISCREPANCY =           0.00



1
  VOLUMETRIC BUDGET FOR ENTIRE MODEL AT END OF TIME STEP   30, STRESS PERIOD  36
  ------------------------------------------------------------------------------

     CUMULATIVE VOLUMES      L**3       RATES FOR THIS TIME STEP      L**3/T
     ------------------                 ------------------------

           IN:                                      IN:
           ---                                      ---
             STORAGE     =  1631087872.0000               STORAGE     =           9.7459
       CONSTANT HEAD     =           0.0000         CONSTANT HEAD     =           0.0000
     HEAD DEP BOUNDS     =    26332694.0000       HEAD DEP BOUNDS     =           0.2872
      STREAM LEAKAGE     =  1129003264.0000        STREAM LEAKAGE     =          12.0835
        UZF RECHARGE     =       73223.9531          UZF RECHARGE     =           0.0000
               GW ET     =           0.0000                 GW ET     =           0.0000
     SURFACE LEAKAGE     =           0.0000       SURFACE LEAKAGE     =           0.0000
           AG WELLS      =           0.0000             AG WELLS      =           0.0000

                TOTAL IN =  2786497024.0000                  TOTAL IN =          22.1166

          OUT:                                     OUT:
          ----                                     ----
             STORAGE     =   584586112.0000               STORAGE     =          12.0441
       CONSTANT HEAD     =           0.0000         CONSTANT HEAD     =           0.0000
     HEAD DEP BOUNDS     =    26952996.0000       HEAD DEP BOUNDS     =           0.2890
      STREAM LEAKAGE     =   945662144.0000        STREAM LEAKAGE     =           9.7834
        UZF RECHARGE     =           0.0000          UZF RECHARGE     =           0.0000
               GW ET     =    17603406.0000                 GW ET     =           0.0000
     SURFACE LEAKAGE     =           0.0000       SURFACE LEAKAGE     =           0.0000
           AG WELLS      =  1211695232.0000             AG WELLS      =           0.0000

               TOTAL OUT =  2786500096.0000                 TOTAL OUT =          22.1166

                IN - OUT =       -3072.0000                  IN - OUT =       1.3351E-05

     PERCENT DISCREPANCY =          -0.00         PERCENT DISCREPANCY =           0.00






         TIME SUMMARY AT END OF TIME STEP   30 IN STRESS PERIOD   36
                    SECONDS     MINUTES      HOURS       DAYS        YEARS
                    -----------------------------------------------------------
   TIME STEP LENGTH  87667.      1461.1      24.352      1.0147     2.77799E-03
 STRESS PERIOD TIME 2.63000E+06  43833.      730.56      30.440     8.33397E-02
         TOTAL TIME 9.21360E+07 1.53560E+06  25593.      1066.4      2.9196    
1
1
                            STRESS PERIOD NO.   37, LENGTH =   2630000.    
                            -----------------------------------------------

                              NUMBER OF TIME STEPS =    30

                               MULTIPLIER FOR DELT =     1.000

                            INITIAL TIME STEP SIZE =   87666.66    

 REUSING NON-PARAMETER GHB CELLS FROM LAST STRESS PERIOD

      2 GHB CELLS

 REUSING STREAM SEGMENT DATA FROM LAST STRESS PERIOD



            AREAL INFILTRATION RATE
 READING ON UNIT   19 WITH FORMAT: (FREE)              

            1           2           3           4           5           6           7           8           9          10
 ........................................................................................................................
   1   1.0000E-10  2.0000E-10   0.000       0.000       0.000       0.000       0.000       0.000       0.000       0.000    
   2   2.0000E-10  1.0000E-10  2.0000E-10   0.000       0.000      8.0000E-10  8.0000E-10  5.0000E-10   0.000       0.000    
   3    0.000      5.0000E-10  1.0000E-10  1.0000E-10  8.0000E-10  8.0000E-10  5.0000E-10  5.0000E-10   0.000       0.000    
   4   8.0000E-10  5.0000E-10  1.0000E-10  1.0000E-10  1.0000E-10  1.0000E-10  1.0000E-10  1.0000E-10  2.0000E-10   0.000    
   5   8.0000E-10  5.0000E-10  1.0000E-10  1.0000E-10  1.0000E-10  1.0000E-10  1.0000E-10  1.0000E-10  1.0000E-10  1.0000E-10
   6   8.0000E-10  5.0000E-10  5.0000E-10  2.0000E-10  2.0000E-10  1.0000E-10  1.0000E-10  1.0000E-10  1.0000E-10  5.0000E-10
   7   8.0000E-10  5.0000E-10  5.0000E-10  2.0000E-10  2.0000E-10  1.0000E-10  1.0000E-10  2.0000E-10  2.0000E-10   0.000    
   8    0.000      5.0000E-10  5.0000E-10  2.0000E-10  2.0000E-10  1.0000E-10  1.0000E-10  2.0000E-10  5.0000E-10   0.000    
   9    0.000      5.0000E-10  5.0000E-10  2.0000E-10  2.0000E-10  1.0000E-10  1.0000E-10  2.0000E-10  5.0000E-10   0.000    
  10    0.000      5.0000E-10  5.0000E-10  2.0000E-10  2.0000E-10  1.0000E-10  1.0000E-10  2.0000E-10  5.0000E-10  8.0000E-10
  11    0.000      1.0000E-10  1.0000E-10  1.0000E-10  1.0000E-10  1.0000E-10  1.0000E-10  2.0000E-10  5.0000E-10   0.000    
  12   1.0000E-10  1.0000E-10  1.0000E-10  1.0000E-10  1.0000E-10  1.0000E-10  1.0000E-10  1.0000E-10  2.0000E-10   0.000    
  13   1.0000E-10  1.0000E-10  2.0000E-10  2.0000E-10  2.0000E-10  2.0000E-10  2.0000E-10  1.0000E-10  1.0000E-10   0.000    
  14    0.000      2.0000E-10  5.0000E-10  5.0000E-10  5.0000E-10  5.0000E-10  5.0000E-10  2.0000E-10  1.0000E-10   0.000    
  15    0.000       0.000      8.0000E-10  8.0000E-10  8.0000E-10  8.0000E-10   0.000       0.000       0.000       0.000    

                  ET RATE =  5.000000E-10

 USING ET EXTINCTION DEPTH FROM PREVIOUS STRESS PERIOD. CURRENT PERIOD IS:      37

 USING EXTINCTION WATER CONTENT FROM PREVIOUS STRESS PERIOD. CURRENT PERIOD IS:      37

 USING AIR ENTRY PRESSURE FROM PREVIOUS STRESS PERIOD. CURRENT PERIOD IS:      37

 USING ROOT PRESSURE HEAD FROM PREVIOUS STRESS PERIOD. CURRENT PERIOD IS:      37

 USING ROOT ACTIVITY FROM PREVIOUS STRESS PERIOD. CURRENT PERIOD IS:      37

 PROCESSING AG STRESS PERIOD DATA

 READING AG STRESS PERIOD DATA

 READING IRRIGATION WELL

 NO IRRPOND OR REUSING IRRPOND DATA FROM LAST STRESS PERIOD

 END PROCESSING AG STRESS PERIOD DATA OPTIONS
 
 SOLVING FOR HEAD 
                                                   Max.-Head-Change                         Max.-Flux-Residual
  Residual-Control   Outer-Iter.   Inner-Iter.     Column Row Layer    Maximum-Head-Change  Column Row Layer    Maximum-Flux-Residual          L2-NORM 
          0                 1           2             4    7     1       0.3478429432E-01       4    7    1         0.1830278685E+01      0.3917881099E+01
          0                 2           2             4    7     1      -0.3383589528E-02       4    7    1        -0.1830296436E+00      0.3917885591E+00
          0                 3           2             4    7     1       0.2304096468E-03       4    7    1         0.1281206379E-01      0.2742513611E-01
          0                 4           1             4    7     1      -0.9168216734E-05       4    7    1        -0.5240142170E-03      0.1121689424E-02

    ------------------------------------------------
       NWT REQUIRED            4 OUTER ITERATIONS 
       AND A TOTAL OF          7 INNER ITERATIONS.
    ------------------------------------------------

 NO OUTPUT CONTROL FOR STRESS PERIOD   37   TIME STEP    1
 
 SOLVING FOR HEAD 
                                                   Max.-Head-Change                         Max.-Flux-Residual
  Residual-Control   Outer-Iter.   Inner-Iter.     Column Row Layer    Maximum-Head-Change  Column Row Layer    Maximum-Flux-Residual          L2-NORM 
          0                 1           2             4    7     1       0.3434994419E-01       4    7    1         0.1807321549E+01      0.3877684774E+01
          0                 2           2             4    7     1      -0.3341338450E-02       4    7    1        -0.1807338855E+00      0.3877688823E+00
          0                 3           2             4    7     1       0.2275325113E-03       4    7    1         0.1265136107E-01      0.2714374803E-01
          0                 4           1             4    7     1      -0.9053732927E-05       4    7    1        -0.5174414687E-03      0.1110174782E-02

    ------------------------------------------------
       NWT REQUIRED            4 OUTER ITERATIONS 
       AND A TOTAL OF          7 INNER ITERATIONS.
    ------------------------------------------------

 NO OUTPUT CONTROL FOR STRESS PERIOD   37   TIME STEP    2
 
 SOLVING FOR HEAD 
                                                   Max.-Head-Change                         Max.-Flux-Residual
  Residual-Control   Outer-Iter.   Inner-Iter.     Column Row Layer    Maximum-Head-Change  Column Row Layer    Maximum-Flux-Residual          L2-NORM 
          0                 1           2             4    7     1       0.3392276384E-01       4    7    1         0.1784742820E+01      0.3838188690E+01
          0                 2           2             4    7     1      -0.3299784813E-02       4    7    1        -0.1784759693E+00      0.3838192382E+00
          0                 3           2             4    7     1       0.2247028693E-03       4    7    1         0.1249330729E-01      0.2686729079E-01
          0                 4           1             4    7     1      -0.8941138825E-05       4    7    1        -0.5109770625E-03      0.1098883869E-02

    ------------------------------------------------
       NWT REQUIRED            4 OUTER ITERATIONS 
       AND A TOTAL OF          7 INNER ITERATIONS.
    ------------------------------------------------

 NO OUTPUT CONTROL FOR STRESS PERIOD   37   TIME STEP    3
 
 SOLVING FOR HEAD 
                                                   Max.-Head-Change                         Max.-Flux-Residual
  Residual-Control   Outer-Iter.   Inner-Iter.     Column Row Layer    Maximum-Head-Change  Column Row Layer    Maximum-Flux-Residual          L2-NORM 
          0                 1           2             4    7     1       0.3350289055E-01       4    7    1         0.1762550401E+01      0.3799377958E+01
          0                 2           2             4    7     1      -0.3258941968E-02       4    7    1        -0.1762566851E+00      0.3799381385E+00
          0                 3           2             4    7     1       0.2219216286E-03       4    7    1         0.1233795771E-01      0.2659559232E-01
          0                 4           1             4    7     1      -0.8830470692E-05       4    7    1        -0.5046232498E-03      0.1087757457E-02

    ------------------------------------------------
       NWT REQUIRED            4 OUTER ITERATIONS 
       AND A TOTAL OF          7 INNER ITERATIONS.
    ------------------------------------------------

 NO OUTPUT CONTROL FOR STRESS PERIOD   37   TIME STEP    4
 
 SOLVING FOR HEAD 
                                                   Max.-Head-Change                         Max.-Flux-Residual
  Residual-Control   Outer-Iter.   Inner-Iter.     Column Row Layer    Maximum-Head-Change  Column Row Layer    Maximum-Flux-Residual          L2-NORM 
          0                 1           2             4    7     1       0.3309018178E-01       4    7    1         0.1740736838E+01      0.3761240484E+01
          0                 2           2             4    7     1      -0.3218796053E-02       4    7    1        -0.1740752876E+00      0.3761243659E+00
          0                 3           2             4    7     1       0.2191878467E-03       4    7    1         0.1218526022E-01      0.2632864091E-01
          0                 4           1             4    7     1      -0.8721690537E-05       4    7    1        -0.4983778970E-03      0.1076836051E-02

    ------------------------------------------------
       NWT REQUIRED            4 OUTER ITERATIONS 
       AND A TOTAL OF          7 INNER ITERATIONS.
    ------------------------------------------------

 NO OUTPUT CONTROL FOR STRESS PERIOD   37   TIME STEP    5
 
 SOLVING FOR HEAD 
                                                   Max.-Head-Change                         Max.-Flux-Residual
  Residual-Control   Outer-Iter.   Inner-Iter.     Column Row Layer    Maximum-Head-Change  Column Row Layer    Maximum-Flux-Residual          L2-NORM 
          0                 1           2             4    7     1       0.3268449764E-01       4    7    1         0.1719294739E+01      0.3723755428E+01
          0                 2           2             4    7     1      -0.3179333460E-02       4    7    1        -0.1719310377E+00      0.3723758316E+00
          0                 3           2             4    7     1       0.2165005963E-03       4    7    1         0.1203516304E-01      0.2606623967E-01
          0                 4           1             4    7     1      -0.8614762554E-05       4    7    1        -0.4922389287E-03      0.1066138715E-02

    ------------------------------------------------
       NWT REQUIRED            4 OUTER ITERATIONS 
       AND A TOTAL OF          7 INNER ITERATIONS.
    ------------------------------------------------

 NO OUTPUT CONTROL FOR STRESS PERIOD   37   TIME STEP    6
 
 SOLVING FOR HEAD 
                                                   Max.-Head-Change                         Max.-Flux-Residual
  Residual-Control   Outer-Iter.   Inner-Iter.     Column Row Layer    Maximum-Head-Change  Column Row Layer    Maximum-Flux-Residual          L2-NORM 
          0                 1           2             4    7     1       0.3228569939E-01       4    7    1         0.1698216853E+01      0.3686909152E+01
          0                 2           2             4    7     1      -0.3140540691E-02       4    7    1        -0.1698232101E+00      0.3686911686E+00
          0                 3           2             4    7     1       0.2138589581E-03       4    7    1         0.1188761541E-01      0.2580831285E-01
          0                 4           1             4    7     1      -0.8509649443E-05       4    7    1        -0.4862042176E-03      0.1055562050E-02

    ------------------------------------------------
       NWT REQUIRED            4 OUTER ITERATIONS 
       AND A TOTAL OF          7 INNER ITERATIONS.
    ------------------------------------------------

 NO OUTPUT CONTROL FOR STRESS PERIOD   37   TIME STEP    7
 
 SOLVING FOR HEAD 
                                                   Max.-Head-Change                         Max.-Flux-Residual
  Residual-Control   Outer-Iter.   Inner-Iter.     Column Row Layer    Maximum-Head-Change  Column Row Layer    Maximum-Flux-Residual          L2-NORM 
          0                 1           2             4    7     1       0.3189365293E-01       4    7    1         0.1677495984E+01      0.3650688342E+01
          0                 2           2             4    7     1      -0.3102404702E-02       4    7    1        -0.1677510853E+00      0.3650690511E+00
          0                 3           2             4    7     1       0.2112620443E-03       4    7    1         0.1174256698E-01      0.2555476085E-01
          0                 4           1             4    7     1      -0.8406315860E-05       4    7    1        -0.4802717351E-03      0.1045186964E-02

    ------------------------------------------------
       NWT REQUIRED            4 OUTER ITERATIONS 
       AND A TOTAL OF          7 INNER ITERATIONS.
    ------------------------------------------------

 NO OUTPUT CONTROL FOR STRESS PERIOD   37   TIME STEP    8
 
 SOLVING FOR HEAD 
                                                   Max.-Head-Change                         Max.-Flux-Residual
  Residual-Control   Outer-Iter.   Inner-Iter.     Column Row Layer    Maximum-Head-Change  Column Row Layer    Maximum-Flux-Residual          L2-NORM 
          0                 1           2             4    7     1       0.3150822171E-01       4    7    1         0.1657125182E+01      0.3615072725E+01
          0                 2           2             4    7     1      -0.3064912211E-02       4    7    1        -0.1657139681E+00      0.3615074651E+00
          0                 3           2             4    7     1       0.2087089498E-03       4    7    1         0.1159996907E-01      0.2530546210E-01
          0                 4           1             4    7     1      -0.8304725308E-05       4    7    1        -0.4744394541E-03      0.1034997621E-02

    ------------------------------------------------
       NWT REQUIRED            4 OUTER ITERATIONS 
       AND A TOTAL OF          7 INNER ITERATIONS.
    ------------------------------------------------

 NO OUTPUT CONTROL FOR STRESS PERIOD   37   TIME STEP    9
 
 SOLVING FOR HEAD 
                                                   Max.-Head-Change                         Max.-Flux-Residual
  Residual-Control   Outer-Iter.   Inner-Iter.     Column Row Layer    Maximum-Head-Change  Column Row Layer    Maximum-Flux-Residual          L2-NORM 
          0                 1           2             4    7     1       0.3112927762E-01       4    7    1         0.1637097365E+01      0.3580059488E+01
          0                 2           2             4    7     1      -0.3028050755E-02       4    7    1        -0.1637111505E+00      0.3580061096E+00
          0                 3           2             4    7     1       0.2061988265E-03       4    7    1         0.1145977210E-01      0.2506036581E-01
          0                 4           1             4    7     1      -0.8204845207E-05       4    7    1        -0.4687054022E-03      0.1024965733E-02

    ------------------------------------------------
       NWT REQUIRED            4 OUTER ITERATIONS 
       AND A TOTAL OF          7 INNER ITERATIONS.
    ------------------------------------------------

 NO OUTPUT CONTROL FOR STRESS PERIOD   37   TIME STEP   10
 
 SOLVING FOR HEAD 
                                                   Max.-Head-Change                         Max.-Flux-Residual
  Residual-Control   Outer-Iter.   Inner-Iter.     Column Row Layer    Maximum-Head-Change  Column Row Layer    Maximum-Flux-Residual          L2-NORM 
          0                 1           2             4    7     1       0.3075682438E-01       4    7    1         0.1617413183E+01      0.3545628526E+01
          0                 2           2             4    7     1      -0.2991820695E-02       4    7    1        -0.1617426973E+00      0.3545629833E+00
          0                 3           2             4    7     1       0.2037316987E-03       4    7    1         0.1132198065E-01      0.2481933401E-01
          0                 4           1             4    7     1      -0.8106675902E-05       4    7    1        -0.4630697224E-03      0.1015216258E-02

    ------------------------------------------------
       NWT REQUIRED            4 OUTER ITERATIONS 
       AND A TOTAL OF          7 INNER ITERATIONS.
    ------------------------------------------------

 NO OUTPUT CONTROL FOR STRESS PERIOD   37   TIME STEP   11
 
 SOLVING FOR HEAD 
                                                   Max.-Head-Change                         Max.-Flux-Residual
  Residual-Control   Outer-Iter.   Inner-Iter.     Column Row Layer    Maximum-Head-Change  Column Row Layer    Maximum-Flux-Residual          L2-NORM 
          0                 1           2             4    7     1       0.3039059292E-01       4    7    1         0.1598058247E+01      0.3511760987E+01
          0                 2           2             4    7     1      -0.2956195859E-02       4    7    1        -0.1598071696E+00      0.3511761801E+00
          0                 3           2             4    7     1       0.2013057843E-03       4    7    1         0.1118649399E-01      0.2458224835E-01
          0                 4           1             4    7     1      -0.8010146360E-05       4    7    1        -0.4575282962E-03      0.1005412999E-02

    ------------------------------------------------
       NWT REQUIRED            4 OUTER ITERATIONS 
       AND A TOTAL OF          7 INNER ITERATIONS.
    ------------------------------------------------

 NO OUTPUT CONTROL FOR STRESS PERIOD   37   TIME STEP   12
 
 SOLVING FOR HEAD 
                                                   Max.-Head-Change                         Max.-Flux-Residual
  Residual-Control   Outer-Iter.   Inner-Iter.     Column Row Layer    Maximum-Head-Change  Column Row Layer    Maximum-Flux-Residual          L2-NORM 
          0                 1           2             4    7     1       0.3003059050E-01       4    7    1         0.1579033189E+01      0.3478451909E+01
          0                 2           2             4    7     1      -0.2921176953E-02       4    7    1        -0.1579046307E+00      0.3478452667E+00
          0                 3           2             4    7     1       0.1989211312E-03       4    7    1         0.1105331650E-01      0.2434911308E-01
          0                 4           1             4    7     1      -0.7915258882E-05       4    7    1        -0.4520813313E-03      0.9958854385E-03

    ------------------------------------------------
       NWT REQUIRED            4 OUTER ITERATIONS 
       AND A TOTAL OF          7 INNER ITERATIONS.
    ------------------------------------------------

 NO OUTPUT CONTROL FOR STRESS PERIOD   37   TIME STEP   13
 
 SOLVING FOR HEAD 
                                                   Max.-Head-Change                         Max.-Flux-Residual
  Residual-Control   Outer-Iter.   Inner-Iter.     Column Row Layer    Maximum-Head-Change  Column Row Layer    Maximum-Flux-Residual          L2-NORM 
          0                 1           2             4    7     1       0.2967655662E-01       4    7    1         0.1560323802E+01      0.3445687034E+01
          0                 2           2             4    7     1      -0.2886738631E-02       4    7    1        -0.1560336597E+00      0.3445641902E+00
          0                 3           2             4    7     1       0.1965760142E-03       4    7    1         0.1092234880E-01      0.2411942781E-01
          0                 4           1             4    7     1      -0.7821944393E-05       4    7    1        -0.4467247418E-03      0.9864823430E-03

    ------------------------------------------------
       NWT REQUIRED            4 OUTER ITERATIONS 
       AND A TOTAL OF          7 INNER ITERATIONS.
    ------------------------------------------------

 NO OUTPUT CONTROL FOR STRESS PERIOD   37   TIME STEP   14
 
 SOLVING FOR HEAD 
                                                   Max.-Head-Change                         Max.-Flux-Residual
  Residual-Control   Outer-Iter.   Inner-Iter.     Column Row Layer    Maximum-Head-Change  Column Row Layer    Maximum-Flux-Residual          L2-NORM 
          0                 1           2             4    7     1       0.2932850178E-01       4    7    1         0.1541931163E+01      0.3413454307E+01
          0                 2           2             4    7     1      -0.2852881928E-02       4    7    1        -0.1541943645E+00      0.3413454618E+00
          0                 3           2             4    7     1       0.1942705026E-03       4    7    1         0.1079359837E-01      0.2389411407E-01
          0                 4           1             4    7     1      -0.7730206001E-05       4    7    1        -0.4414588391E-03      0.9772726941E-03

    ------------------------------------------------
       NWT REQUIRED            4 OUTER ITERATIONS 
       AND A TOTAL OF          7 INNER ITERATIONS.
    ------------------------------------------------

 NO OUTPUT CONTROL FOR STRESS PERIOD   37   TIME STEP   15
 
 SOLVING FOR HEAD 
                                                   Max.-Head-Change                         Max.-Flux-Residual
  Residual-Control   Outer-Iter.   Inner-Iter.     Column Row Layer    Maximum-Head-Change  Column Row Layer    Maximum-Flux-Residual          L2-NORM 
          0                 1           2             4    7     1       0.2898630302E-01       4    7    1         0.1523848526E+01      0.3381758055E+01
          0                 2           2             4    7     1      -0.2819594870E-02       4    7    1        -0.1523860702E+00      0.3381757870E+00
          0                 3           2             4    7     1       0.1920037822E-03       4    7    1         0.1066701801E-01      0.2367224169E-01
          0                 4           1             4    7     1      -0.7640011470E-05       4    7    1        -0.4362817151E-03      0.9681878574E-03

    ------------------------------------------------
       NWT REQUIRED            4 OUTER ITERATIONS 
       AND A TOTAL OF          7 INNER ITERATIONS.
    ------------------------------------------------

 NO OUTPUT CONTROL FOR STRESS PERIOD   37   TIME STEP   16
 
 SOLVING FOR HEAD 
                                                   Max.-Head-Change                         Max.-Flux-Residual
  Residual-Control   Outer-Iter.   Inner-Iter.     Column Row Layer    Maximum-Head-Change  Column Row Layer    Maximum-Flux-Residual          L2-NORM 
          0                 1           2             4    7     1       0.2864983554E-01       4    7    1         0.1506069514E+01      0.3350567276E+01
          0                 2           2             4    7     1      -0.2786865321E-02       4    7    1        -0.1506081393E+00      0.3350567131E+00
          0                 3           2             4    7     1       0.1897750253E-03       4    7    1         0.1054256307E-01      0.2345389621E-01
          0                 4           1             4    7     1      -0.7551326722E-05       4    7    1        -0.4311914925E-03      0.9592577218E-03

    ------------------------------------------------
       NWT REQUIRED            4 OUTER ITERATIONS 
       AND A TOTAL OF          7 INNER ITERATIONS.
    ------------------------------------------------

 NO OUTPUT CONTROL FOR STRESS PERIOD   37   TIME STEP   17
 
 SOLVING FOR HEAD 
                                                   Max.-Head-Change                         Max.-Flux-Residual
  Residual-Control   Outer-Iter.   Inner-Iter.     Column Row Layer    Maximum-Head-Change  Column Row Layer    Maximum-Flux-Residual          L2-NORM 
          0                 1           2             4    7     1       0.2831884750E-01       4    7    1         0.1488580364E+01      0.3319871512E+01
          0                 2           2             4    7     1      -0.2754668784E-02       4    7    1        -0.1488591954E+00      0.3319871123E+00
          0                 3           2             4    7     1       0.1875825647E-03       4    7    1         0.1042013722E-01      0.2323902863E-01
          0                 4           1             4    7     1      -0.7464086480E-05       4    7    1        -0.4261842575E-03      0.9504613502E-03

    ------------------------------------------------
       NWT REQUIRED            4 OUTER ITERATIONS 
       AND A TOTAL OF          7 INNER ITERATIONS.
    ------------------------------------------------

 NO OUTPUT CONTROL FOR STRESS PERIOD   37   TIME STEP   18
 
 SOLVING FOR HEAD 
                                                   Max.-Head-Change                         Max.-Flux-Residual
  Residual-Control   Outer-Iter.   Inner-Iter.     Column Row Layer    Maximum-Head-Change  Column Row Layer    Maximum-Flux-Residual          L2-NORM 
          0                 1           2             4    7     1       0.2799349697E-01       4    7    1         0.1471389900E+01      0.3289663996E+01
          0                 2           2             4    7     1      -0.2723019253E-02       4    7    1        -0.1471401209E+00      0.3289276564E+00
          0                 3           2             4    7     1       0.1854273528E-03       4    7    1         0.1029980221E-01      0.2302485957E-01
          0                 4           1             4    7     1      -0.7378328622E-05       4    7    1        -0.4212625420E-03      0.9417092378E-03

    ------------------------------------------------
       NWT REQUIRED            4 OUTER ITERATIONS 
       AND A TOTAL OF          7 INNER ITERATIONS.
    ------------------------------------------------

 NO OUTPUT CONTROL FOR STRESS PERIOD   37   TIME STEP   19
 
 SOLVING FOR HEAD 
                                                   Max.-Head-Change                         Max.-Flux-Residual
  Residual-Control   Outer-Iter.   Inner-Iter.     Column Row Layer    Maximum-Head-Change  Column Row Layer    Maximum-Flux-Residual          L2-NORM 
          0                 1           2             4    7     1       0.2767353631E-01       4    7    1         0.1454484510E+01      0.3259964373E+01
          0                 2           2             4    7     1      -0.2691896785E-02       4    7    1        -0.1454495544E+00      0.3259963739E+00
          0                 3           2             4    7     1       0.1833080322E-03       4    7    1         0.1018146278E-01      0.2281968759E-01
          0                 4           1             4    7     1      -0.7293999036E-05       4    7    1        -0.4164224597E-03      0.9333248317E-03

    ------------------------------------------------
       NWT REQUIRED            4 OUTER ITERATIONS 
       AND A TOTAL OF          7 INNER ITERATIONS.
    ------------------------------------------------

 NO OUTPUT CONTROL FOR STRESS PERIOD   37   TIME STEP   20
 
 SOLVING FOR HEAD 
                                                   Max.-Head-Change                         Max.-Flux-Residual
  Residual-Control   Outer-Iter.   Inner-Iter.     Column Row Layer    Maximum-Head-Change  Column Row Layer    Maximum-Flux-Residual          L2-NORM 
          0                 1           2             4    7     1       0.2735885000E-01       4    7    1         0.1437858425E+01      0.3230787828E+01
          0                 2           2             4    7     1      -0.2661285995E-02       4    7    1        -0.1437869193E+00      0.3230786970E+00
          0                 3           2             4    7     1       0.1812235545E-03       4    7    1         0.1006507850E-01      0.2261543489E-01
          0                 4           1             4    7     1      -0.7211056162E-05       4    7    1        -0.4116623461E-03      0.9249693225E-03

    ------------------------------------------------
       NWT REQUIRED            4 OUTER ITERATIONS 
       AND A TOTAL OF          7 INNER ITERATIONS.
    ------------------------------------------------

 NO OUTPUT CONTROL FOR STRESS PERIOD   37   TIME STEP   21
 
 SOLVING FOR HEAD 
                                                   Max.-Head-Change                         Max.-Flux-Residual
  Residual-Control   Outer-Iter.   Inner-Iter.     Column Row Layer    Maximum-Head-Change  Column Row Layer    Maximum-Flux-Residual          L2-NORM 
          0                 1           2             4    7     1       0.2704946654E-01       4    7    1         0.1421513175E+01      0.3202066629E+01
          0                 2           2             4    7     1      -0.2631191039E-02       4    7    1        -0.1421523684E+00      0.3202065672E+00
          0                 3           2             4    7     1       0.1791742034E-03       4    7    1         0.9950660142E-02      0.2241439137E-01
          0                 4           1             4    7     1      -0.7129509786E-05       4    7    1        -0.4069826125E-03      0.9167458196E-03

    ------------------------------------------------
       NWT REQUIRED            4 OUTER ITERATIONS 
       AND A TOTAL OF          7 INNER ITERATIONS.
    ------------------------------------------------

 NO OUTPUT CONTROL FOR STRESS PERIOD   37   TIME STEP   22
 
 SOLVING FOR HEAD 
                                                   Max.-Head-Change                         Max.-Flux-Residual
  Residual-Control   Outer-Iter.   Inner-Iter.     Column Row Layer    Maximum-Head-Change  Column Row Layer    Maximum-Flux-Residual          L2-NORM 
          0                 1           2             4    7     1       0.2674514082E-01       4    7    1         0.1405435571E+01      0.3173787165E+01
          0                 2           2             4    7     1      -0.2601588072E-02       4    7    1        -0.1405445828E+00      0.3173785732E+00
          0                 3           2             4    7     1       0.1771583548E-03       4    7    1         0.9838115344E-02      0.2221641267E-01
          0                 4           1             4    7     1      -0.7049297624E-05       4    7    1        -0.4023795220E-03      0.9091143930E-03

    ------------------------------------------------
       NWT REQUIRED            4 OUTER ITERATIONS 
       AND A TOTAL OF          7 INNER ITERATIONS.
    ------------------------------------------------

 NO OUTPUT CONTROL FOR STRESS PERIOD   37   TIME STEP   23
 
 SOLVING FOR HEAD 
                                                   Max.-Head-Change                         Max.-Flux-Residual
  Residual-Control   Outer-Iter.   Inner-Iter.     Column Row Layer    Maximum-Head-Change  Column Row Layer    Maximum-Flux-Residual          L2-NORM 
          0                 1           2             4    7     1       0.2644576882E-01       4    7    1         0.1389620201E+01      0.3145936157E+01
          0                 2           2             4    7     1      -0.2572467025E-02       4    7    1        -0.1389630212E+00      0.3145935061E+00
          0                 3           2             4    7     1       0.1751753222E-03       4    7    1         0.9727406208E-02      0.2202146910E-01
          0                 4           1             4    7     1      -0.6970390663E-05       4    7    1        -0.3978515128E-03      0.9006744860E-03

    ------------------------------------------------
       NWT REQUIRED            4 OUTER ITERATIONS 
       AND A TOTAL OF          7 INNER ITERATIONS.
    ------------------------------------------------

 NO OUTPUT CONTROL FOR STRESS PERIOD   37   TIME STEP   24
 
 SOLVING FOR HEAD 
                                                   Max.-Head-Change                         Max.-Flux-Residual
  Residual-Control   Outer-Iter.   Inner-Iter.     Column Row Layer    Maximum-Head-Change  Column Row Layer    Maximum-Flux-Residual          L2-NORM 
          0                 1           2             4    7     1       0.2615138333E-01       4    7    1         0.1374068966E+01      0.3118516143E+01
          0                 2           2             4    7     1      -0.2543831004E-02       4    7    1        -0.1374078737E+00      0.3118514920E+00
          0                 3           2             4    7     1       0.1732253191E-03       4    7    1         0.9618546070E-02      0.2182952745E-01
          0                 4           1             4    7     1      -0.6892798460E-05       4    7    1        -0.3933991347E-03      0.8928235933E-03

    ------------------------------------------------
       NWT REQUIRED            4 OUTER ITERATIONS 
       AND A TOTAL OF          7 INNER ITERATIONS.
    ------------------------------------------------

 NO OUTPUT CONTROL FOR STRESS PERIOD   37   TIME STEP   25
 
 SOLVING FOR HEAD 
                                                   Max.-Head-Change                         Max.-Flux-Residual
  Residual-Control   Outer-Iter.   Inner-Iter.     Column Row Layer    Maximum-Head-Change  Column Row Layer    Maximum-Flux-Residual          L2-NORM 
          0                 1           2             4    7     1       0.2586174051E-01       4    7    1         0.1358768977E+01      0.3091508384E+01
          0                 2           2             4    7     1      -0.2515656311E-02       4    7    1        -0.1358778515E+00      0.3091506995E+00
          0                 3           2             4    7     1       0.1713067299E-03       4    7    1         0.9511444678E-02      0.2164047782E-01
          0                 4           1             4    7     1      -0.6816455966E-05       4    7    1        -0.3890186745E-03      0.8850820348E-03

    ------------------------------------------------
       NWT REQUIRED            4 OUTER ITERATIONS 
       AND A TOTAL OF          7 INNER ITERATIONS.
    ------------------------------------------------

 NO OUTPUT CONTROL FOR STRESS PERIOD   37   TIME STEP   26
 
 SOLVING FOR HEAD 
                                                   Max.-Head-Change                         Max.-Flux-Residual
  Residual-Control   Outer-Iter.   Inner-Iter.     Column Row Layer    Maximum-Head-Change  Column Row Layer    Maximum-Flux-Residual          L2-NORM 
          0                 1           2             4    7     1       0.2557701277E-01       4    7    1         0.1343729482E+01      0.3064908910E+01
          0                 2           2             4    7     1      -0.2487959731E-02       4    7    1        -0.1343738794E+00      0.3064907231E+00
          0                 3           2             4    7     1       0.1694206988E-03       4    7    1         0.9406166805E-02      0.2145430417E-01
          0                 4           1             4    7     1      -0.6741408659E-05       4    7    1        -0.3847128021E-03      0.8775100574E-03

    ------------------------------------------------
       NWT REQUIRED            4 OUTER ITERATIONS 
       AND A TOTAL OF          7 INNER ITERATIONS.
    ------------------------------------------------

 NO OUTPUT CONTROL FOR STRESS PERIOD   37   TIME STEP   27
 
 SOLVING FOR HEAD 
                                                   Max.-Head-Change                         Max.-Flux-Residual
  Residual-Control   Outer-Iter.   Inner-Iter.     Column Row Layer    Maximum-Head-Change  Column Row Layer    Maximum-Flux-Residual          L2-NORM 
          0                 1           2             4    7     1       0.2529682346E-01       4    7    1         0.1328930229E+01      0.3038710122E+01
          0                 2           2             4    7     1      -0.2460704624E-02       4    7    1        -0.1328939321E+00      0.3038708237E+00
          0                 3           2             4    7     1       0.1675647302E-03       4    7    1         0.9302570657E-02      0.2127088693E-01
          0                 4           1             4    7     1      -0.6667557987E-05       4    7    1        -0.3804757027E-03      0.8700137201E-03

    ------------------------------------------------
       NWT REQUIRED            4 OUTER ITERATIONS 
       AND A TOTAL OF          7 INNER ITERATIONS.
    ------------------------------------------------

 NO OUTPUT CONTROL FOR STRESS PERIOD   37   TIME STEP   28
 
 SOLVING FOR HEAD 
                                                   Max.-Head-Change                         Max.-Flux-Residual
  Residual-Control   Outer-Iter.   Inner-Iter.     Column Row Layer    Maximum-Head-Change  Column Row Layer    Maximum-Flux-Residual          L2-NORM 
          0                 1           2             4    7     1       0.2502107664E-01       4    7    1         0.1314366284E+01      0.3012892895E+01
          0                 2           2             4    7     1      -0.2433881660E-02       4    7    1        -0.1314375161E+00      0.3012890879E+00
          0                 3           2             4    7     1       0.1657381891E-03       4    7    1         0.9200621711E-02      0.2109015556E-01
          0                 4           1             4    7     1      -0.6594878393E-05       4    7    1        -0.3763059879E-03      0.8625789104E-03

    ------------------------------------------------
       NWT REQUIRED            4 OUTER ITERATIONS 
       AND A TOTAL OF          7 INNER ITERATIONS.
    ------------------------------------------------

 NO OUTPUT CONTROL FOR STRESS PERIOD   37   TIME STEP   29
 
 SOLVING FOR HEAD 
                                                   Max.-Head-Change                         Max.-Flux-Residual
  Residual-Control   Outer-Iter.   Inner-Iter.     Column Row Layer    Maximum-Head-Change  Column Row Layer    Maximum-Flux-Residual          L2-NORM 
          0                 1           2             4    7     1       0.2474995252E-01       4    7    1         0.1300047273E+01      0.2987469444E+01
          0                 2           2             4    7     1      -0.2407508367E-02       4    7    1        -0.1300055941E+00      0.2987467105E+00
          0                 3           2             4    7     1       0.1639422687E-03       4    7    1         0.9100387307E-02      0.2091218893E-01
          0                 4           1             4    7     1      -0.6523417195E-05       4    7    1        -0.3722064039E-03      0.8553355053E-03

    ------------------------------------------------
       NWT REQUIRED            4 OUTER ITERATIONS 
       AND A TOTAL OF          7 INNER ITERATIONS.
    ------------------------------------------------

 NO OUTPUT CONTROL FOR STRESS PERIOD   37   TIME STEP   30



 STREAM LISTING     PERIOD     37   STEP       30

 LAYER ROW COL. STREAM  RCH.  FLOW INTO     FLOW TO   FLOW OUT OF   OVRLND.     DIRECT     STREAM       STREAM     STREAM     STREAM   STREAMBED  STREAMBED
                SEG.NO.  NO.  STRM. RCH.    AQUIFER    STRM. RCH.    RUNOFF     PRECIP       ET          HEAD       DEPTH      WIDTH   CONDCTNC.   GRADIENT

   1    1    1     1     1    1.9000E+01  2.1427E-01   1.8786E+01  0.000E+00  0.000E+00  0.000E+00  1.09413E+03  1.082E+00  1.166E+01  5.249E-02  1.361E+00
   1    2    2     1     2    1.8786E+01  3.3054E-01   1.8455E+01  0.000E+00  0.000E+00  0.000E+00  1.08914E+03  1.077E+00  1.158E+01  8.107E-02  1.359E+00
   1    3    3     1     3    1.8455E+01  2.8064E-01   1.8175E+01  0.000E+00  0.000E+00  0.000E+00  1.08349E+03  1.072E+00  1.149E+01  6.892E-02  1.357E+00
   1    3    4     1     4    1.8175E+01  2.5740E-01   1.7917E+01  0.000E+00  0.000E+00  0.000E+00  1.07848E+03  1.068E+00  1.140E+01  6.328E-02  1.356E+00
   1    4    5     2     1    1.5917E+01  3.0542E-01   1.5612E+01  0.000E+00  0.000E+00  0.000E+00  1.07285E+03  9.157E-01  1.200E+01  7.800E-02  1.305E+00
   1    5    6     2     2    1.5612E+01  2.3438E-01   1.5377E+01  0.000E+00  0.000E+00  0.000E+00  1.06742E+03  9.063E-01  1.200E+01  6.000E-02  1.302E+00
   1    6    6     2     3    1.5377E+01  2.3388E-01   1.5143E+01  0.000E+00  0.000E+00  0.000E+00  1.06269E+03  8.980E-01  1.200E+01  6.000E-02  1.299E+00
   1    7    6     2     4    1.5143E+01  2.3338E-01   1.4910E+01  0.000E+00  0.000E+00  0.000E+00  1.05797E+03  8.897E-01  1.200E+01  6.000E-02  1.297E+00
   1    8    6     2     5    1.4910E+01  2.3289E-01   1.4677E+01  0.000E+00  0.000E+00  0.000E+00  1.05324E+03  8.814E-01  1.200E+01  6.000E-02  1.294E+00
   1    3    5     3     1    2.0000E+00  2.8252E-01   1.7175E+00  0.000E+00  0.000E+00  0.000E+00  1.07555E+03  1.909E+00  9.636E+00  7.227E-02  1.955E+00
   1    3    6     3     2    1.7175E+00  2.4905E-01   1.4684E+00  0.000E+00  0.000E+00  0.000E+00  1.07264E+03  1.727E+00  8.909E+00  6.682E-02  1.864E+00
   1    3    7     3     3    1.4684E+00  1.9718E-01   1.2712E+00  0.000E+00  0.000E+00  0.000E+00  1.06987E+03  1.555E+00  8.218E+00  5.547E-02  1.777E+00
   1    4    8     3     4    1.2712E+00  2.2567E-01   1.0456E+00  0.000E+00  0.000E+00  0.000E+00  1.06682E+03  1.364E+00  7.455E+00  6.709E-02  1.682E+00
   1    5    8     3     5    1.0456E+00  1.5790E-01   8.8768E-01  0.000E+00  0.000E+00  0.000E+00  1.06362E+03  1.164E+00  6.655E+00  4.991E-02  1.582E+00
   1    6    8     3     6    8.8768E-01  5.5980E-02   8.3170E-01  0.000E+00  0.000E+00  0.000E+00  1.06158E+03  1.036E+00  6.145E+00  1.844E-02  1.518E+00
   1    5   10     4     1    1.0000E+01  9.0919E-02   9.9091E+00  0.000E+00  0.000E+00  0.000E+00  1.07836E+03  6.368E-01  1.000E+01  2.500E-02  1.212E+00
   1    5    9     4     2    9.9091E+00  1.8158E-01   9.7275E+00  0.000E+00  0.000E+00  0.000E+00  1.07154E+03  6.315E-01  1.000E+01  5.000E-02  1.211E+00
   1    6    8     4     3    9.7275E+00  1.2689E-01   9.6006E+00  0.000E+00  0.000E+00  0.000E+00  1.06381E+03  6.256E-01  1.000E+01  3.500E-02  1.209E+00
   1    6    8     5     1    1.0432E+01  2.2686E-01   1.0205E+01  0.000E+00  0.000E+00  0.000E+00  1.05868E+03  6.790E-01  1.542E+01  6.166E-02  1.226E+00
   1    7    7     5     2    1.0205E+01  2.7894E-01   9.9265E+00  0.000E+00  0.000E+00  0.000E+00  1.05417E+03  6.732E-01  1.519E+01  7.594E-02  1.224E+00
   1    8    7     5     3    9.9265E+00  1.9221E-01   9.7343E+00  0.000E+00  0.000E+00  0.000E+00  1.04992E+03  6.676E-01  1.497E+01  5.241E-02  1.223E+00
   1    8    6     5     4    9.7343E+00  1.3577E-01   9.5985E+00  0.000E+00  0.000E+00  0.000E+00  1.04691E+03  6.637E-01  1.482E+01  3.706E-02  1.221E+00
   1    9    6     6     1    2.4276E+01  2.5176E-01   2.4024E+01  0.000E+00  0.000E+00  0.000E+00  1.04392E+03  1.196E+00  1.200E+01  6.000E-02  1.399E+00
   1   10    7     6     2    2.4024E+01  2.5131E-01   2.3773E+01  0.000E+00  0.000E+00  0.000E+00  1.03937E+03  1.188E+00  1.200E+01  6.000E-02  1.396E+00
   1   11    7     6     3    2.3773E+01  2.5086E-01   2.3522E+01  0.000E+00  0.000E+00  0.000E+00  1.03482E+03  1.181E+00  1.200E+01  6.000E-02  1.394E+00
   1   12    7     6     4    2.3522E+01  2.5041E-01   2.3271E+01  0.000E+00  0.000E+00  0.000E+00  1.03026E+03  1.173E+00  1.200E+01  6.000E-02  1.391E+00
   1   13    7     6     5    2.3271E+01  8.5002E-03   2.3263E+01  0.000E+00  0.000E+00  0.000E+00  1.02708E+03  1.170E+00  1.200E+01  2.400E-02  1.181E-01
   1   14    9     7     1    1.5000E+02  1.3596E+00   1.4864E+02  0.000E+00  0.000E+00  0.000E+00  1.03987E+03  2.288E+00  5.529E+01  5.593E-01  8.103E-01
   1   13    8     7     2    1.4864E+02  1.9352E+00   1.4671E+02  0.000E+00  0.000E+00  0.000E+00  1.03478E+03  2.279E+00  5.526E+01  6.148E-01  1.049E+00
   1   13    7     7     3    1.4671E+02  1.6552E+00   1.4505E+02  0.000E+00  0.000E+00  0.000E+00  1.02969E+03  2.269E+00  5.521E+01  5.584E-01  9.881E-01
   1   13    6     8     1    1.6831E+02  1.0973E+00   1.6722E+02  0.000E+00  0.000E+00  0.000E+00  1.02481E+03  2.938E+00  4.259E+01  4.341E-01  8.426E-01
   1   13    5     8     2    1.6722E+02  3.4395E-01   1.6687E+02  0.000E+00  0.000E+00  0.000E+00  1.01856E+03  2.933E+00  4.253E+01  4.334E-01  2.646E-01
   1   13    4     8     3    1.6687E+02 -1.8586E+00   1.6873E+02  0.000E+00  0.000E+00  0.000E+00  1.01231E+03  2.938E+00  4.260E+01  4.341E+00 -1.427E-01
   1   13    3     8     4    1.6873E+02 -3.3765E+00   1.7211E+02  0.000E+00  0.000E+00  0.000E+00  1.00608E+03  2.955E+00  4.285E+01  4.366E+00 -2.578E-01
   1   13    2     8     5    1.7211E+02 -2.5127E+00   1.7462E+02  0.000E+00  0.000E+00  0.000E+00  9.99849E+02  2.974E+00  4.312E+01  4.394E+00 -1.906E-01
   1   13    1     8     6    1.7462E+02 -1.9662E+00   1.7659E+02  0.000E+00  0.000E+00  0.000E+00  9.94863E+02  2.988E+00  4.333E+01  2.649E+00 -2.474E-01





UNSATURATED ZONE PACKAGE VOLUMETRIC BUDGET FOR  TIME STEP    30 STRESS PERIOD   37
  ------------------------------------------------------------------------------



     CUMULATIVE VOLUMES      L**3       RATES FOR THIS TIME STEP      L**3/T
     ------------------                 ------------------------

           IN:                                      IN:
           ---                                      ---
        INFILTRATION =  1292014400.9612          INFILTRATION =           0.8475

          OUT:                                     OUT:
          ----                                     ----
              UZF ET =  1290662672.0279                UZF ET =           0.7500
        UZF RECHARGE =       73224.0000          UZF RECHARGE =       0.0000E+00

            IN - OUT =     1278504.9333              IN - OUT =       9.7500E-02

          STORAGE:                                 STORAGE:
          --------                                 --------
      STORAGE CHANGE =     1278496.5033        STORAGE CHANGE =       9.7500E-02

 PERCENT DISCREPANCY IS DIFFERENCE BETWEEN IN-OUT MINUS CHANGE IN STORAGE
 DIVIDED BY THE AVERAGE OF IN AND OUT TIMES 100

 PERCENT DISCREPANCY =           0.00     PERCENT DISCREPANCY =           0.00






1
  VOLUMETRIC BUDGET FOR AGRICULTURAL FIELDS AT  END OF TIME STEP   30, STRESS PERIOD  37
  ------------------------------------------------------------------------------

     CUMULATIVE VOLUMES      L**3       RATES FOR THIS TIME STEP      L**3/T
     ------------------                 ------------------------

           IN:                                      IN:
           ---                                      ---
               AG WELLS  =  1211695232.0000                 AG WELLS  =           0.0000
      DIVERSION SEGMENTS =           0.0000        DIVERSION SEGMENTS =           0.0000
       IRRIGATION PONDS  =           0.0000         IRRIGATION PONDS  =           0.0000
           GW IRRIGATION =           0.0000             GW IRRIGATION =           0.0000
           SW IRRIGATION =           0.0000             SW IRRIGATION =           0.0000
        SYSTEM LOSSES GW =           0.0000          SYSTEM LOSSES GW =           0.0000
        SYSTEM LOSSES SW =           0.0000          SYSTEM LOSSES SW =           0.0000

                TOTAL IN =  1211695232.0000                  TOTAL IN =           0.0000

          OUT:                                     OUT:
          ----                                     ----
               AG WELLS  =           0.0000                 AG WELLS  =           0.0000
      DIVERSION SEGMENTS =           0.0000        DIVERSION SEGMENTS =           0.0000
       IRRIGATION PONDS  =           0.0000         IRRIGATION PONDS  =           0.0000
           GW IRRIGATION =  1211695232.0000             GW IRRIGATION =           0.0000
           SW IRRIGATION =           0.0000             SW IRRIGATION =           0.0000
        SYSTEM LOSSES GW =           0.0000          SYSTEM LOSSES GW =           0.0000
        SYSTEM LOSSES SW =           0.0000          SYSTEM LOSSES SW =           0.0000

               TOTAL OUT =  1211695232.0000                 TOTAL OUT =           0.0000

                IN - OUT =           0.0000                  IN - OUT =           0.0000

     PERCENT DISCREPANCY =           0.00         PERCENT DISCREPANCY =           0.00



1
  VOLUMETRIC BUDGET FOR ENTIRE MODEL AT END OF TIME STEP   30, STRESS PERIOD  37
  ------------------------------------------------------------------------------

     CUMULATIVE VOLUMES      L**3       RATES FOR THIS TIME STEP      L**3/T
     ------------------                 ------------------------

           IN:                                      IN:
           ---                                      ---
             STORAGE     =  1653588096.0000               STORAGE     =           7.5799
       CONSTANT HEAD     =           0.0000         CONSTANT HEAD     =           0.0000
     HEAD DEP BOUNDS     =    27088324.0000       HEAD DEP BOUNDS     =           0.2874
      STREAM LEAKAGE     =  1160843008.0000        STREAM LEAKAGE     =          12.1283
        UZF RECHARGE     =       73223.9531          UZF RECHARGE     =           0.0000
               GW ET     =           0.0000                 GW ET     =           0.0000
     SURFACE LEAKAGE     =           0.0000       SURFACE LEAKAGE     =           0.0000
           AG WELLS      =           0.0000             AG WELLS      =           0.0000

                TOTAL IN =  2841592832.0000                  TOTAL IN =          19.9956

          OUT:                                     OUT:
          ----                                     ----
             STORAGE     =   613286336.0000               STORAGE     =           9.9925
       CONSTANT HEAD     =           0.0000         CONSTANT HEAD     =           0.0000
     HEAD DEP BOUNDS     =    27713132.0000       HEAD DEP BOUNDS     =           0.2890
      STREAM LEAKAGE     =   971297664.0000        STREAM LEAKAGE     =           9.7141
        UZF RECHARGE     =           0.0000          UZF RECHARGE     =           0.0000
               GW ET     =    17603406.0000                 GW ET     =           0.0000
     SURFACE LEAKAGE     =           0.0000       SURFACE LEAKAGE     =           0.0000
           AG WELLS      =  1211695232.0000             AG WELLS      =           0.0000

               TOTAL OUT =  2841595904.0000                 TOTAL OUT =          19.9956

                IN - OUT =       -3072.0000                  IN - OUT =       1.5259E-05

     PERCENT DISCREPANCY =          -0.00         PERCENT DISCREPANCY =           0.00






         TIME SUMMARY AT END OF TIME STEP   30 IN STRESS PERIOD   37
                    SECONDS     MINUTES      HOURS       DAYS        YEARS
                    -----------------------------------------------------------
   TIME STEP LENGTH  87667.      1461.1      24.352      1.0147     2.77799E-03
 STRESS PERIOD TIME 2.63000E+06  43833.      730.56      30.440     8.33397E-02
         TOTAL TIME 9.47660E+07 1.57943E+06  26324.      1096.8      3.0030    
1
1
                            STRESS PERIOD NO.   38, LENGTH =   2630000.    
                            -----------------------------------------------

                              NUMBER OF TIME STEPS =    30

                               MULTIPLIER FOR DELT =     1.000

                            INITIAL TIME STEP SIZE =   87666.66    

 REUSING NON-PARAMETER GHB CELLS FROM LAST STRESS PERIOD

      2 GHB CELLS

 REUSING STREAM SEGMENT DATA FROM LAST STRESS PERIOD



            AREAL INFILTRATION RATE
 READING ON UNIT   19 WITH FORMAT: (FREE)              

            1           2           3           4           5           6           7           8           9          10
 ........................................................................................................................
   1   1.0000E-10  2.0000E-10   0.000       0.000       0.000       0.000       0.000       0.000       0.000       0.000    
   2   2.0000E-10  1.0000E-10  2.0000E-10   0.000       0.000      8.0000E-10  8.0000E-10  5.0000E-10   0.000       0.000    
   3    0.000      5.0000E-10  1.0000E-10  1.0000E-10  8.0000E-10  8.0000E-10  5.0000E-10  5.0000E-10   0.000       0.000    
   4   8.0000E-10  5.0000E-10  1.0000E-10  1.0000E-10  1.0000E-10  1.0000E-10  1.0000E-10  1.0000E-10  2.0000E-10   0.000    
   5   8.0000E-10  5.0000E-10  1.0000E-10  1.0000E-10  1.0000E-10  1.0000E-10  1.0000E-10  1.0000E-10  1.0000E-10  1.0000E-10
   6   8.0000E-10  5.0000E-10  5.0000E-10  2.0000E-10  2.0000E-10  1.0000E-10  1.0000E-10  1.0000E-10  1.0000E-10  5.0000E-10
   7   8.0000E-10  5.0000E-10  5.0000E-10  2.0000E-10  2.0000E-10  1.0000E-10  1.0000E-10  2.0000E-10  2.0000E-10   0.000    
   8    0.000      5.0000E-10  5.0000E-10  2.0000E-10  2.0000E-10  1.0000E-10  1.0000E-10  2.0000E-10  5.0000E-10   0.000    
   9    0.000      5.0000E-10  5.0000E-10  2.0000E-10  2.0000E-10  1.0000E-10  1.0000E-10  2.0000E-10  5.0000E-10   0.000    
  10    0.000      5.0000E-10  5.0000E-10  2.0000E-10  2.0000E-10  1.0000E-10  1.0000E-10  2.0000E-10  5.0000E-10  8.0000E-10
  11    0.000      1.0000E-10  1.0000E-10  1.0000E-10  1.0000E-10  1.0000E-10  1.0000E-10  2.0000E-10  5.0000E-10   0.000    
  12   1.0000E-10  1.0000E-10  1.0000E-10  1.0000E-10  1.0000E-10  1.0000E-10  1.0000E-10  1.0000E-10  2.0000E-10   0.000    
  13   1.0000E-10  1.0000E-10  2.0000E-10  2.0000E-10  2.0000E-10  2.0000E-10  2.0000E-10  1.0000E-10  1.0000E-10   0.000    
  14    0.000      2.0000E-10  5.0000E-10  5.0000E-10  5.0000E-10  5.0000E-10  5.0000E-10  2.0000E-10  1.0000E-10   0.000    
  15    0.000       0.000      8.0000E-10  8.0000E-10  8.0000E-10  8.0000E-10   0.000       0.000       0.000       0.000    

                  ET RATE =  5.000000E-10

 USING ET EXTINCTION DEPTH FROM PREVIOUS STRESS PERIOD. CURRENT PERIOD IS:      38

 USING EXTINCTION WATER CONTENT FROM PREVIOUS STRESS PERIOD. CURRENT PERIOD IS:      38

 USING AIR ENTRY PRESSURE FROM PREVIOUS STRESS PERIOD. CURRENT PERIOD IS:      38

 USING ROOT PRESSURE HEAD FROM PREVIOUS STRESS PERIOD. CURRENT PERIOD IS:      38

 USING ROOT ACTIVITY FROM PREVIOUS STRESS PERIOD. CURRENT PERIOD IS:      38

 PROCESSING AG STRESS PERIOD DATA

 READING AG STRESS PERIOD DATA

 READING IRRIGATION WELL

 NO IRRPOND OR REUSING IRRPOND DATA FROM LAST STRESS PERIOD

 END PROCESSING AG STRESS PERIOD DATA OPTIONS
 
 SOLVING FOR HEAD 
                                                   Max.-Head-Change                         Max.-Flux-Residual
  Residual-Control   Outer-Iter.   Inner-Iter.     Column Row Layer    Maximum-Head-Change  Column Row Layer    Maximum-Flux-Residual          L2-NORM 
          0                 1           2             4    7     1       0.2448321048E-01       4    7    1         0.1285960640E+01      0.2962419001E+01
          0                 2           2             4    7     1      -0.2381561339E-02       4    7    1        -0.1285969105E+00      0.2962416491E+00
          0                 3           2             4    7     1       0.1621753752E-03       4    7    1         0.9001779614E-02      0.2073683115E-01
          0                 4           1             4    7     1      -0.6453110497E-05       4    7    1        -0.3681733390E-03      0.8481313882E-03

    ------------------------------------------------
       NWT REQUIRED            4 OUTER ITERATIONS 
       AND A TOTAL OF          7 INNER ITERATIONS.
    ------------------------------------------------

 NO OUTPUT CONTROL FOR STRESS PERIOD   38   TIME STEP    1
 
 SOLVING FOR HEAD 
                                                   Max.-Head-Change                         Max.-Flux-Residual
  Residual-Control   Outer-Iter.   Inner-Iter.     Column Row Layer    Maximum-Head-Change  Column Row Layer    Maximum-Flux-Residual          L2-NORM 
          0                 1           2             4    7     1       0.2422062519E-01       4    7    1         0.1272093910E+01      0.2937731355E+01
          0                 2           2             4    7     1      -0.2356018657E-02       4    7    1        -0.1272102177E+00      0.2937728501E+00
          0                 3           2             4    7     1       0.1604360159E-03       4    7    1         0.8904711257E-02      0.2056401438E-01
          0                 4           1             4    7     1      -0.6383899698E-05       4    7    1        -0.3642032302E-03      0.8410727094E-03

    ------------------------------------------------
       NWT REQUIRED            4 OUTER ITERATIONS 
       AND A TOTAL OF          7 INNER ITERATIONS.
    ------------------------------------------------

 NO OUTPUT CONTROL FOR STRESS PERIOD   38   TIME STEP    2
 
 SOLVING FOR HEAD 
                                                   Max.-Head-Change                         Max.-Flux-Residual
  Residual-Control   Outer-Iter.   Inner-Iter.     Column Row Layer    Maximum-Head-Change  Column Row Layer    Maximum-Flux-Residual          L2-NORM 
          0                 1           2             4    7     1       0.2396237867E-01       4    7    1         0.1258457300E+01      0.2913410385E+01
          0                 2           2             4    7     1      -0.2330898242E-02       4    7    1        -0.1258465375E+00      0.2913579358E+00
          0                 3           2             4    7     1       0.1587254117E-03       4    7    1         0.8809253784E-02      0.2039496437E-01
          0                 4           1             4    7     1      -0.6315833382E-05       4    7    1        -0.3602990203E-03      0.8341469154E-03

    ------------------------------------------------
       NWT REQUIRED            4 OUTER ITERATIONS 
       AND A TOTAL OF          7 INNER ITERATIONS.
    ------------------------------------------------

 NO OUTPUT CONTROL FOR STRESS PERIOD   38   TIME STEP    3
 
 SOLVING FOR HEAD 
                                                   Max.-Head-Change                         Max.-Flux-Residual
  Residual-Control   Outer-Iter.   Inner-Iter.     Column Row Layer    Maximum-Head-Change  Column Row Layer    Maximum-Flux-Residual          L2-NORM 
          0                 1           2             4    7     1       0.2370823414E-01       4    7    1         0.1245038335E+01      0.2889419469E+01
          0                 2           2             4    7     1      -0.2306176417E-02       4    7    1        -0.1245046223E+00      0.2889416422E+00
          0                 3           2             4    7     1       0.1570419497E-03       4    7    1         0.8715319865E-02      0.2022583194E-01
          0                 4           1             4    7     1      -0.6248846618E-05       4    7    1        -0.3564571034E-03      0.8272410203E-03

    ------------------------------------------------
       NWT REQUIRED            4 OUTER ITERATIONS 
       AND A TOTAL OF          7 INNER ITERATIONS.
    ------------------------------------------------

 NO OUTPUT CONTROL FOR STRESS PERIOD   38   TIME STEP    4
 
 SOLVING FOR HEAD 
                                                   Max.-Head-Change                         Max.-Flux-Residual
  Residual-Control   Outer-Iter.   Inner-Iter.     Column Row Layer    Maximum-Head-Change  Column Row Layer    Maximum-Flux-Residual          L2-NORM 
          0                 1           2             4    7     1       0.2345810878E-01       4    7    1         0.1231832074E+01      0.2865745681E+01
          0                 2           2             4    7     1      -0.2281845770E-02       4    7    1        -0.1231839779E+00      0.2865742450E+00
          0                 3           2             4    7     1       0.1553851255E-03       4    7    1         0.8622874883E-02      0.2006010880E-01
          0                 4           1             4    7     1      -0.6182920294E-05       4    7    1        -0.3526761052E-03      0.8204495509E-03

    ------------------------------------------------
       NWT REQUIRED            4 OUTER ITERATIONS 
       AND A TOTAL OF          7 INNER ITERATIONS.
    ------------------------------------------------

 NO OUTPUT CONTROL FOR STRESS PERIOD   38   TIME STEP    5
 
 SOLVING FOR HEAD 
                                                   Max.-Head-Change                         Max.-Flux-Residual
  Residual-Control   Outer-Iter.   Inner-Iter.     Column Row Layer    Maximum-Head-Change  Column Row Layer    Maximum-Flux-Residual          L2-NORM 
          0                 1           2             4    7     1       0.2321191743E-01       4    7    1         0.1218834188E+01      0.2842416266E+01
          0                 2           2             4    7     1      -0.2257897802E-02       4    7    1        -0.1218841716E+00      0.2842413213E+00
          0                 3           2             4    7     1       0.1537543604E-03       4    7    1         0.8531888571E-02      0.1989682070E-01
          0                 4           1             4    7     1      -0.6118030580E-05       4    7    1        -0.3489547657E-03      0.8137784681E-03

    ------------------------------------------------
       NWT REQUIRED            4 OUTER ITERATIONS 
       AND A TOTAL OF          7 INNER ITERATIONS.
    ------------------------------------------------

 NO OUTPUT CONTROL FOR STRESS PERIOD   38   TIME STEP    6
 
 SOLVING FOR HEAD 
                                                   Max.-Head-Change                         Max.-Flux-Residual
  Residual-Control   Outer-Iter.   Inner-Iter.     Column Row Layer    Maximum-Head-Change  Column Row Layer    Maximum-Flux-Residual          L2-NORM 
          0                 1           2             4    7     1       0.2296970595E-01       4    7    1         0.1206047575E+01      0.2819413574E+01
          0                 2           2             4    7     1      -0.2234336974E-02       4    7    1        -0.1206054930E+00      0.2819409990E+00
          0                 3           2             4    7     1       0.1521499578E-03       4    7    1         0.8442381199E-02      0.1973579195E-01
          0                 4           1             4    7     1      -0.6054189908E-05       4    7    1        -0.3452939063E-03      0.8071907029E-03

    ------------------------------------------------
       NWT REQUIRED            4 OUTER ITERATIONS 
       AND A TOTAL OF          7 INNER ITERATIONS.
    ------------------------------------------------

 NO OUTPUT CONTROL FOR STRESS PERIOD   38   TIME STEP    7
 
 SOLVING FOR HEAD 
                                                   Max.-Head-Change                         Max.-Flux-Residual
  Residual-Control   Outer-Iter.   Inner-Iter.     Column Row Layer    Maximum-Head-Change  Column Row Layer    Maximum-Flux-Residual          L2-NORM 
          0                 1           2             4    7     1       0.2273125645E-01       4    7    1         0.1193460009E+01      0.2796745282E+01
          0                 2           2             4    7     1      -0.2211142090E-02       4    7    1        -0.1193467196E+00      0.2796741769E+00
          0                 3           2             4    7     1       0.1505704748E-03       4    7    1         0.8354267195E-02      0.1957711314E-01
          0                 4           1             4    7     1      -0.5991340829E-05       4    7    1        -0.3416900356E-03      0.8007022354E-03

    ------------------------------------------------
       NWT REQUIRED            4 OUTER ITERATIONS 
       AND A TOTAL OF          7 INNER ITERATIONS.
    ------------------------------------------------

 NO OUTPUT CONTROL FOR STRESS PERIOD   38   TIME STEP    8
 
 SOLVING FOR HEAD 
                                                   Max.-Head-Change                         Max.-Flux-Residual
  Residual-Control   Outer-Iter.   Inner-Iter.     Column Row Layer    Maximum-Head-Change  Column Row Layer    Maximum-Flux-Residual          L2-NORM 
          0                 1           2             4    7     1       0.2249661789E-01       4    7    1         0.1181074797E+01      0.2774395100E+01
          0                 2           2             4    7     1      -0.2188317914E-02       4    7    1        -0.1181081820E+00      0.2774391230E+00
          0                 3           2             4    7     1       0.1490162353E-03       4    7    1         0.8267569665E-02      0.1942065143E-01
          0                 4           1             4    7     1      -0.5929496009E-05       4    7    1        -0.3381441031E-03      0.7942979037E-03

    ------------------------------------------------
       NWT REQUIRED            4 OUTER ITERATIONS 
       AND A TOTAL OF          7 INNER ITERATIONS.
    ------------------------------------------------

 NO OUTPUT CONTROL FOR STRESS PERIOD   38   TIME STEP    9
 
 SOLVING FOR HEAD 
                                                   Max.-Head-Change                         Max.-Flux-Residual
  Residual-Control   Outer-Iter.   Inner-Iter.     Column Row Layer    Maximum-Head-Change  Column Row Layer    Maximum-Flux-Residual          L2-NORM 
          0                 1           2             4    7     1       0.2226557512E-01       4    7    1         0.1168879873E+01      0.2752360271E+01
          0                 2           2             4    7     1      -0.2165843517E-02       4    7    1        -0.1168886737E+00      0.2752356131E+00
          0                 3           2             4    7     1       0.1474858146E-03       4    7    1         0.8182204205E-02      0.1926641857E-01
          0                 4           1             4    7     1      -0.5868599265E-05       4    7    1        -0.3346526519E-03      0.7879955686E-03

    ------------------------------------------------
       NWT REQUIRED            4 OUTER ITERATIONS 
       AND A TOTAL OF          7 INNER ITERATIONS.
    ------------------------------------------------

 NO OUTPUT CONTROL FOR STRESS PERIOD   38   TIME STEP   10
 
 SOLVING FOR HEAD 
                                                   Max.-Head-Change                         Max.-Flux-Residual
  Residual-Control   Outer-Iter.   Inner-Iter.     Column Row Layer    Maximum-Head-Change  Column Row Layer    Maximum-Flux-Residual          L2-NORM 
          0                 1           2             4    7     1       0.2203818585E-01       4    7    1         0.1156878687E+01      0.2730638432E+01
          0                 2           2             4    7     1      -0.2143724511E-02       4    7    1        -0.1156885396E+00      0.2730634409E+00
          0                 3           2             4    7     1       0.1459795941E-03       4    7    1         0.8098194915E-02      0.1911435346E-01
          0                 4           1             4    7     1      -0.5808664988E-05       4    7    1        -0.3312166564E-03      0.7817682536E-03

    ------------------------------------------------
       NWT REQUIRED            4 OUTER ITERATIONS 
       AND A TOTAL OF          7 INNER ITERATIONS.
    ------------------------------------------------

 NO OUTPUT CONTROL FOR STRESS PERIOD   38   TIME STEP   11
 
 SOLVING FOR HEAD 
                                                   Max.-Head-Change                         Max.-Flux-Residual
  Residual-Control   Outer-Iter.   Inner-Iter.     Column Row Layer    Maximum-Head-Change  Column Row Layer    Maximum-Flux-Residual          L2-NORM 
          0                 1           2             4    7     1       0.2181423818E-01       4    7    1         0.1145059625E+01      0.2709216567E+01
          0                 2           2             4    7     1      -0.2121940286E-02       4    7    1        -0.1145066183E+00      0.2709212217E+00
          0                 3           2             4    7     1       0.1444961716E-03       4    7    1         0.8015460542E-02      0.1896439838E-01
          0                 4           1             4    7     1      -0.5749638261E-05       4    7    1        -0.3278328247E-03      0.7756410302E-03

    ------------------------------------------------
       NWT REQUIRED            4 OUTER ITERATIONS 
       AND A TOTAL OF          7 INNER ITERATIONS.
    ------------------------------------------------

 NO OUTPUT CONTROL FOR STRESS PERIOD   38   TIME STEP   12
 
 SOLVING FOR HEAD 
                                                   Max.-Head-Change                         Max.-Flux-Residual
  Residual-Control   Outer-Iter.   Inner-Iter.     Column Row Layer    Maximum-Head-Change  Column Row Layer    Maximum-Flux-Residual          L2-NORM 
          0                 1           2             4    7     1       0.2159379200E-01       4    7    1         0.1133426308E+01      0.2688094175E+01
          0                 2           2             4    7     1      -0.2100496666E-02       4    7    1        -0.1133432719E+00      0.2688089665E+00
          0                 3           2             4    7     1       0.1430359426E-03       4    7    1         0.7934026408E-02      0.1881654941E-01
          0                 4           1             4    7     1      -0.5691534513E-05       4    7    1        -0.3245021494E-03      0.7695941992E-03

    ------------------------------------------------
       NWT REQUIRED            4 OUTER ITERATIONS 
       AND A TOTAL OF          7 INNER ITERATIONS.
    ------------------------------------------------

 NO OUTPUT CONTROL FOR STRESS PERIOD   38   TIME STEP   13
 
 SOLVING FOR HEAD 
                                                   Max.-Head-Change                         Max.-Flux-Residual
  Residual-Control   Outer-Iter.   Inner-Iter.     Column Row Layer    Maximum-Head-Change  Column Row Layer    Maximum-Flux-Residual          L2-NORM 
          0                 1           2             4    7     1       0.2137663931E-01       4    7    1         0.1121967232E+01      0.2667260815E+01
          0                 2           2             4    7     1      -0.2079373418E-02       4    7    1        -0.1121973500E+00      0.2667256102E+00
          0                 3           2             4    7     1       0.1415975303E-03       4    7    1         0.7853811986E-02      0.1867070770E-01
          0                 4           1             4    7     1      -0.5634298711E-05       4    7    1        -0.3212213858E-03      0.7636244097E-03

    ------------------------------------------------
       NWT REQUIRED            4 OUTER ITERATIONS 
       AND A TOTAL OF          7 INNER ITERATIONS.
    ------------------------------------------------

 NO OUTPUT CONTROL FOR STRESS PERIOD   38   TIME STEP   14
 
 SOLVING FOR HEAD 
                                                   Max.-Head-Change                         Max.-Flux-Residual
  Residual-Control   Outer-Iter.   Inner-Iter.     Column Row Layer    Maximum-Head-Change  Column Row Layer    Maximum-Flux-Residual          L2-NORM 
          0                 1           2             4    7     1       0.2116297911E-01       4    7    1         0.1110693527E+01      0.2646724376E+01
          0                 2           2             4    7     1      -0.2058589899E-02       4    7    1        -0.1110699656E+00      0.2646719606E+00
          0                 3           2             4    7     1       0.1401822516E-03       4    7    1         0.7774895160E-02      0.1852696205E-01
          0                 4           1             4    7     1      -0.5577983470E-05       4    7    1        -0.3179936914E-03      0.7752570144E-03

    ------------------------------------------------
       NWT REQUIRED            4 OUTER ITERATIONS 
       AND A TOTAL OF          7 INNER ITERATIONS.
    ------------------------------------------------

 NO OUTPUT CONTROL FOR STRESS PERIOD   38   TIME STEP   15
 
 SOLVING FOR HEAD 
                                                   Max.-Head-Change                         Max.-Flux-Residual
  Residual-Control   Outer-Iter.   Inner-Iter.     Column Row Layer    Maximum-Head-Change  Column Row Layer    Maximum-Flux-Residual          L2-NORM 
          0                 1           2             4    7     1       0.2095246153E-01       4    7    1         0.1099586292E+01      0.2626453511E+01
          0                 2           2             4    7     1      -0.2038108941E-02       4    7    1        -0.1099592285E+00      0.2626498732E+00
          0                 3           2             4    7     1       0.1387845240E-03       4    7    1         0.7697143651E-02      0.1838128594E-01
          0                 4           1             4    7     1      -0.5522366592E-05       4    7    1        -0.3148136441E-03      0.7517912626E-03

    ------------------------------------------------
       NWT REQUIRED            4 OUTER ITERATIONS 
       AND A TOTAL OF          7 INNER ITERATIONS.
    ------------------------------------------------

 NO OUTPUT CONTROL FOR STRESS PERIOD   38   TIME STEP   16
 
 SOLVING FOR HEAD 
                                                   Max.-Head-Change                         Max.-Flux-Residual
  Residual-Control   Outer-Iter.   Inner-Iter.     Column Row Layer    Maximum-Head-Change  Column Row Layer    Maximum-Flux-Residual          L2-NORM 
          0                 1           2             4    7     1       0.2074515934E-01       4    7    1         0.1088649302E+01      0.2606469143E+01
          0                 2           2             4    7     1      -0.2018018173E-02       4    7    1        -0.1088655163E+00      0.2607350851E+00
          0                 3           2             4    7     1       0.1374194712E-03       4    7    1         0.7620583905E-02      0.1825137467E-01
          0                 4           1             4    7     1      -0.5468049736E-05       4    7    1        -0.3116823398E-03      0.7464848111E-03

    ------------------------------------------------
       NWT REQUIRED            4 OUTER ITERATIONS 
       AND A TOTAL OF          7 INNER ITERATIONS.
    ------------------------------------------------

 NO OUTPUT CONTROL FOR STRESS PERIOD   38   TIME STEP   17
 
 SOLVING FOR HEAD 
                                                   Max.-Head-Change                         Max.-Flux-Residual
  Residual-Control   Outer-Iter.   Inner-Iter.     Column Row Layer    Maximum-Head-Change  Column Row Layer    Maximum-Flux-Residual          L2-NORM 
          0                 1           2             4    7     1       0.2054079033E-01       4    7    1         0.1077875232E+01      0.2586684304E+01
          0                 2           2             4    7     1      -0.1998067326E-02       4    7    1        -0.1077880967E+00      0.2586679283E+00
          0                 3           2             4    7     1       0.1360608940E-03       4    7    1         0.7545164601E-02      0.1810667307E-01
          0                 4           1             4    7     1      -0.5413990765E-05       4    7    1        -0.3085976839E-03      0.7405656666E-03

    ------------------------------------------------
       NWT REQUIRED            4 OUTER ITERATIONS 
       AND A TOTAL OF          7 INNER ITERATIONS.
    ------------------------------------------------

 NO OUTPUT CONTROL FOR STRESS PERIOD   38   TIME STEP   18
 
 SOLVING FOR HEAD 
                                                   Max.-Head-Change                         Max.-Flux-Residual
  Residual-Control   Outer-Iter.   Inner-Iter.     Column Row Layer    Maximum-Head-Change  Column Row Layer    Maximum-Flux-Residual          L2-NORM 
          0                 1           2             4    7     1       0.2033951712E-01       4    7    1         0.1067260825E+01      0.2567159021E+01
          0                 2           2             4    7     1      -0.1978488747E-02       4    7    1        -0.1067266436E+00      0.2567154004E+00
          0                 3           2             4    7     1       0.1347276673E-03       4    7    1         0.7470862980E-02      0.1797000582E-01
          0                 4           1             4    7     1      -0.5360940427E-05       4    7    1        -0.3055587433E-03      0.7349768200E-03

    ------------------------------------------------
       NWT REQUIRED            4 OUTER ITERATIONS 
       AND A TOTAL OF          7 INNER ITERATIONS.
    ------------------------------------------------

 NO OUTPUT CONTROL FOR STRESS PERIOD   38   TIME STEP   19
 
 SOLVING FOR HEAD 
                                                   Max.-Head-Change                         Max.-Flux-Residual
  Residual-Control   Outer-Iter.   Inner-Iter.     Column Row Layer    Maximum-Head-Change  Column Row Layer    Maximum-Flux-Residual          L2-NORM 
          0                 1           2             4    7     1       0.2014120466E-01       4    7    1         0.1056803139E+01      0.2547897580E+01
          0                 2           2             4    7     1      -0.1959198173E-02       4    7    1        -0.1056808629E+00      0.2547892382E+00
          0                 3           2             4    7     1       0.1334140528E-03       4    7    1         0.7397658424E-02      0.1783516714E-01
          0                 4           1             4    7     1      -0.5308670770E-05       4    7    1        -0.3025646845E-03      0.7294569984E-03

    ------------------------------------------------
       NWT REQUIRED            4 OUTER ITERATIONS 
       AND A TOTAL OF          7 INNER ITERATIONS.
    ------------------------------------------------

 NO OUTPUT CONTROL FOR STRESS PERIOD   38   TIME STEP   20
 
 SOLVING FOR HEAD 
                                                   Max.-Head-Change                         Max.-Flux-Residual
  Residual-Control   Outer-Iter.   Inner-Iter.     Column Row Layer    Maximum-Head-Change  Column Row Layer    Maximum-Flux-Residual          L2-NORM 
          0                 1           2             4    7     1       0.1994580002E-01       4    7    1         0.1046498962E+01      0.2528898620E+01
          0                 2           2             4    7     1      -0.1940190454E-02       4    7    1        -0.1046504335E+00      0.2528893165E+00
          0                 3           2             4    7     1       0.1321196990E-03       4    7    1         0.7325528429E-02      0.1770215062E-01
          0                 4           1             4    7     1      -0.5257166941E-05       4    7    1        -0.2996145543E-03      0.7240162853E-03

    ------------------------------------------------
       NWT REQUIRED            4 OUTER ITERATIONS 
       AND A TOTAL OF          7 INNER ITERATIONS.
    ------------------------------------------------

 NO OUTPUT CONTROL FOR STRESS PERIOD   38   TIME STEP   21
 
 SOLVING FOR HEAD 
                                                   Max.-Head-Change                         Max.-Flux-Residual
  Residual-Control   Outer-Iter.   Inner-Iter.     Column Row Layer    Maximum-Head-Change  Column Row Layer    Maximum-Flux-Residual          L2-NORM 
          0                 1           2             4    7     1       0.1975324442E-01       4    7    1         0.1036345551E+01      0.2510155841E+01
          0                 2           2             4    7     1      -0.1921459872E-02       4    7    1        -0.1036350809E+00      0.2510150296E+00
          0                 3           2             4    7     1       0.1308442171E-03       4    7    1         0.7254453815E-02      0.1757095984E-01
          0                 4           1             4    7     1      -0.5206413860E-05       4    7    1        -0.2967075798E-03      0.7186508324E-03

    ------------------------------------------------
       NWT REQUIRED            4 OUTER ITERATIONS 
       AND A TOTAL OF          7 INNER ITERATIONS.
    ------------------------------------------------

 NO OUTPUT CONTROL FOR STRESS PERIOD   38   TIME STEP   22
 
 SOLVING FOR HEAD 
                                                   Max.-Head-Change                         Max.-Flux-Residual
  Residual-Control   Outer-Iter.   Inner-Iter.     Column Row Layer    Maximum-Head-Change  Column Row Layer    Maximum-Flux-Residual          L2-NORM 
          0                 1           2             4    7     1       0.1956348330E-01       4    7    1         0.1026339857E+01      0.2491660043E+01
          0                 2           2             4    7     1      -0.1903001123E-02       4    7    1        -0.1026345002E+00      0.2491654498E+00
          0                 3           2             4    7     1       0.1295872463E-03       4    7    1         0.7184413236E-02      0.1744149833E-01
          0                 4           1             4    7     1      -0.5156398055E-05       4    7    1        -0.2938429279E-03      0.7133570642E-03

    ------------------------------------------------
       NWT REQUIRED            4 OUTER ITERATIONS 
       AND A TOTAL OF          7 INNER ITERATIONS.
    ------------------------------------------------

 NO OUTPUT CONTROL FOR STRESS PERIOD   38   TIME STEP   23
 
 SOLVING FOR HEAD 
                                                   Max.-Head-Change                         Max.-Flux-Residual
  Residual-Control   Outer-Iter.   Inner-Iter.     Column Row Layer    Maximum-Head-Change  Column Row Layer    Maximum-Flux-Residual          L2-NORM 
          0                 1           2             4    7     1       0.1937660022E-01       4    7    1         0.1016486361E+01      0.2473417665E+01
          0                 2           2             4    7     1      -0.1884822332E-02       4    7    1        -0.1016491396E+00      0.2473411951E+00
          0                 3           2             4    7     1       0.1283493399E-03       4    7    1         0.7115438076E-02      0.1731381152E-01
          0                 4           1             4    7     1      -0.5107140596E-05       4    7    1        -0.2910218477E-03      0.7081445846E-03

    ------------------------------------------------
       NWT REQUIRED            4 OUTER ITERATIONS 
       AND A TOTAL OF          7 INNER ITERATIONS.
    ------------------------------------------------

 NO OUTPUT CONTROL FOR STRESS PERIOD   38   TIME STEP   24
 
 SOLVING FOR HEAD 
                                                   Max.-Head-Change                         Max.-Flux-Residual
  Residual-Control   Outer-Iter.   Inner-Iter.     Column Row Layer    Maximum-Head-Change  Column Row Layer    Maximum-Flux-Residual          L2-NORM 
          0                 1           2             4    7     1       0.1919226703E-01       4    7    1         0.1006767470E+01      0.2455416263E+01
          0                 2           2             4    7     1      -0.1866891580E-02       4    7    1        -0.1006772398E+00      0.2455410494E+00
          0                 3           2             4    7     1       0.1271283239E-03       4    7    1         0.7047405175E-02      0.1718777516E-01
          0                 4           1             4    7     1      -0.5058555367E-05       4    7    1        -0.2882392964E-03      0.7029625654E-03

    ------------------------------------------------
       NWT REQUIRED            4 OUTER ITERATIONS 
       AND A TOTAL OF          7 INNER ITERATIONS.
    ------------------------------------------------

 NO OUTPUT CONTROL FOR STRESS PERIOD   38   TIME STEP   25
 
 SOLVING FOR HEAD 
                                                   Max.-Head-Change                         Max.-Flux-Residual
  Residual-Control   Outer-Iter.   Inner-Iter.     Column Row Layer    Maximum-Head-Change  Column Row Layer    Maximum-Flux-Residual          L2-NORM 
          0                 1           2             4    7     1       0.1901070677E-01       4    7    1         0.9971954021E+00      0.2437650396E+01
          0                 2           2             4    7     1      -0.1849230562E-02       4    7    1        -0.9972002258E-01      0.2437644222E+00
          0                 3           2             4    7     1       0.1259256754E-03       4    7    1         0.6980400046E-02      0.1706338556E-01
          0                 4           1             4    7     1      -0.5010700738E-05       4    7    1        -0.2854987652E-03      0.6978731930E-03

    ------------------------------------------------
       NWT REQUIRED            4 OUTER ITERATIONS 
       AND A TOTAL OF          7 INNER ITERATIONS.
    ------------------------------------------------

 NO OUTPUT CONTROL FOR STRESS PERIOD   38   TIME STEP   26
 
 SOLVING FOR HEAD 
                                                   Max.-Head-Change                         Max.-Flux-Residual
  Residual-Control   Outer-Iter.   Inner-Iter.     Column Row Layer    Maximum-Head-Change  Column Row Layer    Maximum-Flux-Residual          L2-NORM 
          0                 1           2             4    7     1       0.1883172821E-01       4    7    1         0.9877597980E+00      0.2420118054E+01
          0                 2           2             4    7     1      -0.1831820677E-02       4    7    1        -0.9877645198E-01      0.2420112234E+00
          0                 3           2             4    7     1       0.1247401284E-03       4    7    1         0.6914350158E-02      0.1694069951E-01
          0                 4           1             4    7     1      -0.4963526974E-05       4    7    1        -0.2827973424E-03      0.6928696367E-03

    ------------------------------------------------
       NWT REQUIRED            4 OUTER ITERATIONS 
       AND A TOTAL OF          7 INNER ITERATIONS.
    ------------------------------------------------

 NO OUTPUT CONTROL FOR STRESS PERIOD   38   TIME STEP   27
 
 SOLVING FOR HEAD 
                                                   Max.-Head-Change                         Max.-Flux-Residual
  Residual-Control   Outer-Iter.   Inner-Iter.     Column Row Layer    Maximum-Head-Change  Column Row Layer    Maximum-Flux-Residual          L2-NORM 
          0                 1           2             4    7     1       0.1865541732E-01       4    7    1         0.9784653594E+00      0.2402819397E+01
          0                 2           2             4    7     1      -0.1814670287E-02       4    7    1        -0.9784699820E-01      0.2402813493E+00
          0                 3           2             4    7     1       0.1235722518E-03       4    7    1         0.6849288459E-02      0.1681961892E-01
          0                 4           1             4    7     1      -0.4917056063E-05       4    7    1        -0.2801363146E-03      0.6879212078E-03

    ------------------------------------------------
       NWT REQUIRED            4 OUTER ITERATIONS 
       AND A TOTAL OF          7 INNER ITERATIONS.
    ------------------------------------------------

 NO OUTPUT CONTROL FOR STRESS PERIOD   38   TIME STEP   28
 
 SOLVING FOR HEAD 
                                                   Max.-Head-Change                         Max.-Flux-Residual
  Residual-Control   Outer-Iter.   Inner-Iter.     Column Row Layer    Maximum-Head-Change  Column Row Layer    Maximum-Flux-Residual          L2-NORM 
          0                 1           2             4    7     1       0.1848158572E-01       4    7    1         0.9693019260E+00      0.2385746425E+01
          0                 2           2             4    7     1      -0.1797761068E-02       4    7    1        -0.9693064516E-01      0.2385740642E+00
          0                 3           2             4    7     1       0.1224207982E-03       4    7    1         0.6785143815E-02      0.1670009073E-01
          0                 4           1             4    7     1      -0.4871238502E-05       4    7    1        -0.2775127882E-03      0.6830288497E-03

    ------------------------------------------------
       NWT REQUIRED            4 OUTER ITERATIONS 
       AND A TOTAL OF          7 INNER ITERATIONS.
    ------------------------------------------------

 NO OUTPUT CONTROL FOR STRESS PERIOD   38   TIME STEP   29
 
 SOLVING FOR HEAD 
                                                   Max.-Head-Change                         Max.-Flux-Residual
  Residual-Control   Outer-Iter.   Inner-Iter.     Column Row Layer    Maximum-Head-Change  Column Row Layer    Maximum-Flux-Residual          L2-NORM 
          0                 1           2             4    7     1       0.1831018457E-01       4    7    1         0.9602670398E+00      0.2368887757E+01
          0                 2           2             4    7     1      -0.1781088268E-02       4    7    1        -0.9602714706E-01      0.2368881442E+00
          0                 3           2             4    7     1       0.1212854435E-03       4    7    1         0.6721898997E-02      0.1658208595E-01
          0                 4           1             4    7     1      -0.4826061510E-05       4    7    1        -0.2749260784E-03      0.6782088506E-03

    ------------------------------------------------
       NWT REQUIRED            4 OUTER ITERATIONS 
       AND A TOTAL OF          7 INNER ITERATIONS.
    ------------------------------------------------

 NO OUTPUT CONTROL FOR STRESS PERIOD   38   TIME STEP   30



 STREAM LISTING     PERIOD     38   STEP       30

 LAYER ROW COL. STREAM  RCH.  FLOW INTO     FLOW TO   FLOW OUT OF   OVRLND.     DIRECT     STREAM       STREAM     STREAM     STREAM   STREAMBED  STREAMBED
                SEG.NO.  NO.  STRM. RCH.    AQUIFER    STRM. RCH.    RUNOFF     PRECIP       ET          HEAD       DEPTH      WIDTH   CONDCTNC.   GRADIENT

   1    1    1     1     1    1.9000E+01  2.1427E-01   1.8786E+01  0.000E+00  0.000E+00  0.000E+00  1.09413E+03  1.082E+00  1.166E+01  5.249E-02  1.361E+00
   1    2    2     1     2    1.8786E+01  3.3054E-01   1.8455E+01  0.000E+00  0.000E+00  0.000E+00  1.08914E+03  1.077E+00  1.158E+01  8.107E-02  1.359E+00
   1    3    3     1     3    1.8455E+01  2.8064E-01   1.8175E+01  0.000E+00  0.000E+00  0.000E+00  1.08349E+03  1.072E+00  1.149E+01  6.892E-02  1.357E+00
   1    3    4     1     4    1.8175E+01  2.5740E-01   1.7917E+01  0.000E+00  0.000E+00  0.000E+00  1.07848E+03  1.068E+00  1.140E+01  6.328E-02  1.356E+00
   1    4    5     2     1    1.5917E+01  3.0542E-01   1.5612E+01  0.000E+00  0.000E+00  0.000E+00  1.07285E+03  9.157E-01  1.200E+01  7.800E-02  1.305E+00
   1    5    6     2     2    1.5612E+01  2.3438E-01   1.5377E+01  0.000E+00  0.000E+00  0.000E+00  1.06742E+03  9.063E-01  1.200E+01  6.000E-02  1.302E+00
   1    6    6     2     3    1.5377E+01  2.3388E-01   1.5143E+01  0.000E+00  0.000E+00  0.000E+00  1.06269E+03  8.980E-01  1.200E+01  6.000E-02  1.299E+00
   1    7    6     2     4    1.5143E+01  2.3338E-01   1.4910E+01  0.000E+00  0.000E+00  0.000E+00  1.05797E+03  8.897E-01  1.200E+01  6.000E-02  1.297E+00
   1    8    6     2     5    1.4910E+01  2.3289E-01   1.4677E+01  0.000E+00  0.000E+00  0.000E+00  1.05324E+03  8.814E-01  1.200E+01  6.000E-02  1.294E+00
   1    3    5     3     1    2.0000E+00  2.8252E-01   1.7175E+00  0.000E+00  0.000E+00  0.000E+00  1.07555E+03  1.909E+00  9.636E+00  7.227E-02  1.955E+00
   1    3    6     3     2    1.7175E+00  2.4905E-01   1.4684E+00  0.000E+00  0.000E+00  0.000E+00  1.07264E+03  1.727E+00  8.909E+00  6.682E-02  1.864E+00
   1    3    7     3     3    1.4684E+00  1.9718E-01   1.2712E+00  0.000E+00  0.000E+00  0.000E+00  1.06987E+03  1.555E+00  8.218E+00  5.547E-02  1.777E+00
   1    4    8     3     4    1.2712E+00  2.2567E-01   1.0456E+00  0.000E+00  0.000E+00  0.000E+00  1.06682E+03  1.364E+00  7.455E+00  6.709E-02  1.682E+00
   1    5    8     3     5    1.0456E+00  1.5790E-01   8.8768E-01  0.000E+00  0.000E+00  0.000E+00  1.06362E+03  1.164E+00  6.655E+00  4.991E-02  1.582E+00
   1    6    8     3     6    8.8768E-01  5.5980E-02   8.3170E-01  0.000E+00  0.000E+00  0.000E+00  1.06158E+03  1.036E+00  6.145E+00  1.844E-02  1.518E+00
   1    5   10     4     1    1.0000E+01  9.0919E-02   9.9091E+00  0.000E+00  0.000E+00  0.000E+00  1.07836E+03  6.368E-01  1.000E+01  2.500E-02  1.212E+00
   1    5    9     4     2    9.9091E+00  1.8158E-01   9.7275E+00  0.000E+00  0.000E+00  0.000E+00  1.07154E+03  6.315E-01  1.000E+01  5.000E-02  1.211E+00
   1    6    8     4     3    9.7275E+00  1.2689E-01   9.6006E+00  0.000E+00  0.000E+00  0.000E+00  1.06381E+03  6.256E-01  1.000E+01  3.500E-02  1.209E+00
   1    6    8     5     1    1.0432E+01  2.2686E-01   1.0205E+01  0.000E+00  0.000E+00  0.000E+00  1.05868E+03  6.790E-01  1.542E+01  6.166E-02  1.226E+00
   1    7    7     5     2    1.0205E+01  2.7894E-01   9.9265E+00  0.000E+00  0.000E+00  0.000E+00  1.05417E+03  6.732E-01  1.519E+01  7.594E-02  1.224E+00
   1    8    7     5     3    9.9265E+00  1.9221E-01   9.7343E+00  0.000E+00  0.000E+00  0.000E+00  1.04992E+03  6.676E-01  1.497E+01  5.241E-02  1.223E+00
   1    8    6     5     4    9.7343E+00  1.3577E-01   9.5985E+00  0.000E+00  0.000E+00  0.000E+00  1.04691E+03  6.637E-01  1.482E+01  3.706E-02  1.221E+00
   1    9    6     6     1    2.4276E+01  2.5176E-01   2.4024E+01  0.000E+00  0.000E+00  0.000E+00  1.04392E+03  1.196E+00  1.200E+01  6.000E-02  1.399E+00
   1   10    7     6     2    2.4024E+01  2.5131E-01   2.3773E+01  0.000E+00  0.000E+00  0.000E+00  1.03937E+03  1.188E+00  1.200E+01  6.000E-02  1.396E+00
   1   11    7     6     3    2.3773E+01  2.5086E-01   2.3522E+01  0.000E+00  0.000E+00  0.000E+00  1.03482E+03  1.181E+00  1.200E+01  6.000E-02  1.394E+00
   1   12    7     6     4    2.3522E+01  2.5041E-01   2.3271E+01  0.000E+00  0.000E+00  0.000E+00  1.03026E+03  1.173E+00  1.200E+01  6.000E-02  1.391E+00
   1   13    7     6     5    2.3271E+01  9.0498E-03   2.3262E+01  0.000E+00  0.000E+00  0.000E+00  1.02708E+03  1.170E+00  1.200E+01  2.400E-02  1.257E-01
   1   14    9     7     1    1.5000E+02  1.3615E+00   1.4864E+02  0.000E+00  0.000E+00  0.000E+00  1.03987E+03  2.288E+00  5.529E+01  5.593E-01  8.114E-01
   1   13    8     7     2    1.4864E+02  1.9416E+00   1.4670E+02  0.000E+00  0.000E+00  0.000E+00  1.03478E+03  2.279E+00  5.525E+01  6.148E-01  1.053E+00
   1   13    7     7     3    1.4670E+02  1.6679E+00   1.4503E+02  0.000E+00  0.000E+00  0.000E+00  1.02969E+03  2.269E+00  5.521E+01  5.584E-01  9.957E-01
   1   13    6     8     1    1.6829E+02  1.1099E+00   1.6718E+02  0.000E+00  0.000E+00  0.000E+00  1.02481E+03  2.937E+00  4.259E+01  4.340E-01  8.524E-01
   1   13    5     8     2    1.6718E+02  3.5546E-01   1.6683E+02  0.000E+00  0.000E+00  0.000E+00  1.01856E+03  2.933E+00  4.252E+01  4.333E-01  2.734E-01
   1   13    4     8     3    1.6683E+02 -1.8210E+00   1.6865E+02  0.000E+00  0.000E+00  0.000E+00  1.01231E+03  2.937E+00  4.259E+01  4.340E+00 -1.398E-01
   1   13    3     8     4    1.6865E+02 -3.3568E+00   1.7200E+02  0.000E+00  0.000E+00  0.000E+00  1.00608E+03  2.954E+00  4.284E+01  4.365E+00 -2.563E-01
   1   13    2     8     5    1.7200E+02 -2.5082E+00   1.7451E+02  0.000E+00  0.000E+00  0.000E+00  9.99848E+02  2.973E+00  4.311E+01  4.393E+00 -1.903E-01
   1   13    1     8     6    1.7451E+02 -1.9652E+00   1.7648E+02  0.000E+00  0.000E+00  0.000E+00  9.94863E+02  2.988E+00  4.332E+01  2.649E+00 -2.473E-01





UNSATURATED ZONE PACKAGE VOLUMETRIC BUDGET FOR  TIME STEP    30 STRESS PERIOD   38
  ------------------------------------------------------------------------------



     CUMULATIVE VOLUMES      L**3       RATES FOR THIS TIME STEP      L**3/T
     ------------------                 ------------------------

           IN:                                      IN:
           ---                                      ---
        INFILTRATION =  1294243325.8339          INFILTRATION =           0.8475

          OUT:                                     OUT:
          ----                                     ----
              UZF ET =  1292635171.9065                UZF ET =           0.7500
        UZF RECHARGE =       73224.0000          UZF RECHARGE =       0.0000E+00

            IN - OUT =     1534929.9274              IN - OUT =       9.7500E-02

          STORAGE:                                 STORAGE:
          --------                                 --------
      STORAGE CHANGE =     1534921.5175        STORAGE CHANGE =       9.7500E-02

 PERCENT DISCREPANCY IS DIFFERENCE BETWEEN IN-OUT MINUS CHANGE IN STORAGE
 DIVIDED BY THE AVERAGE OF IN AND OUT TIMES 100

 PERCENT DISCREPANCY =           0.00     PERCENT DISCREPANCY =           0.00






1
  VOLUMETRIC BUDGET FOR AGRICULTURAL FIELDS AT  END OF TIME STEP   30, STRESS PERIOD  38
  ------------------------------------------------------------------------------

     CUMULATIVE VOLUMES      L**3       RATES FOR THIS TIME STEP      L**3/T
     ------------------                 ------------------------

           IN:                                      IN:
           ---                                      ---
               AG WELLS  =  1211695232.0000                 AG WELLS  =           0.0000
      DIVERSION SEGMENTS =           0.0000        DIVERSION SEGMENTS =           0.0000
       IRRIGATION PONDS  =           0.0000         IRRIGATION PONDS  =           0.0000
           GW IRRIGATION =           0.0000             GW IRRIGATION =           0.0000
           SW IRRIGATION =           0.0000             SW IRRIGATION =           0.0000
        SYSTEM LOSSES GW =           0.0000          SYSTEM LOSSES GW =           0.0000
        SYSTEM LOSSES SW =           0.0000          SYSTEM LOSSES SW =           0.0000

                TOTAL IN =  1211695232.0000                  TOTAL IN =           0.0000

          OUT:                                     OUT:
          ----                                     ----
               AG WELLS  =           0.0000                 AG WELLS  =           0.0000
      DIVERSION SEGMENTS =           0.0000        DIVERSION SEGMENTS =           0.0000
       IRRIGATION PONDS  =           0.0000         IRRIGATION PONDS  =           0.0000
           GW IRRIGATION =  1211695232.0000             GW IRRIGATION =           0.0000
           SW IRRIGATION =           0.0000             SW IRRIGATION =           0.0000
        SYSTEM LOSSES GW =           0.0000          SYSTEM LOSSES GW =           0.0000
        SYSTEM LOSSES SW =           0.0000          SYSTEM LOSSES SW =           0.0000

               TOTAL OUT =  1211695232.0000                 TOTAL OUT =           0.0000

                IN - OUT =           0.0000                  IN - OUT =           0.0000

     PERCENT DISCREPANCY =           0.00         PERCENT DISCREPANCY =           0.00



1
  VOLUMETRIC BUDGET FOR ENTIRE MODEL AT END OF TIME STEP   30, STRESS PERIOD  38
  ------------------------------------------------------------------------------

     CUMULATIVE VOLUMES      L**3       RATES FOR THIS TIME STEP      L**3/T
     ------------------                 ------------------------

           IN:                                      IN:
           ---                                      ---
             STORAGE     =  1671405568.0000               STORAGE     =           6.1279
       CONSTANT HEAD     =           0.0000         CONSTANT HEAD     =           0.0000
     HEAD DEP BOUNDS     =    27844302.0000       HEAD DEP BOUNDS     =           0.2875
      STREAM LEAKAGE     =  1192802944.0000        STREAM LEAKAGE     =          12.1740
        UZF RECHARGE     =       73223.9531          UZF RECHARGE     =           0.0000
               GW ET     =           0.0000                 GW ET     =           0.0000
     SURFACE LEAKAGE     =           0.0000       SURFACE LEAKAGE     =           0.0000
           AG WELLS      =           0.0000             AG WELLS      =           0.0000

                TOTAL IN =  2892126208.0000                  TOTAL IN =          18.5895

          OUT:                                     OUT:
          ----                                     ----
             STORAGE     =   637598464.0000               STORAGE     =           8.6493
       CONSTANT HEAD     =           0.0000         CONSTANT HEAD     =           0.0000
     HEAD DEP BOUNDS     =    28473178.0000       HEAD DEP BOUNDS     =           0.2890
      STREAM LEAKAGE     =   996758208.0000        STREAM LEAKAGE     =           9.6512
        UZF RECHARGE     =           0.0000          UZF RECHARGE     =           0.0000
               GW ET     =    17603406.0000                 GW ET     =           0.0000
     SURFACE LEAKAGE     =           0.0000       SURFACE LEAKAGE     =           0.0000
           AG WELLS      =  1211695232.0000             AG WELLS      =           0.0000

               TOTAL OUT =  2892128512.0000                 TOTAL OUT =          18.5895

                IN - OUT =       -2304.0000                  IN - OUT =       1.3351E-05

     PERCENT DISCREPANCY =          -0.00         PERCENT DISCREPANCY =           0.00






         TIME SUMMARY AT END OF TIME STEP   30 IN STRESS PERIOD   38
                    SECONDS     MINUTES      HOURS       DAYS        YEARS
                    -----------------------------------------------------------
   TIME STEP LENGTH  87667.      1461.1      24.352      1.0147     2.77799E-03
 STRESS PERIOD TIME 2.63000E+06  43833.      730.56      30.440     8.33397E-02
         TOTAL TIME 9.73959E+07 1.62326E+06  27054.      1127.3      3.0863    
1
1
                            STRESS PERIOD NO.   39, LENGTH =   2630000.    
                            -----------------------------------------------

                              NUMBER OF TIME STEPS =    30

                               MULTIPLIER FOR DELT =     1.000

                            INITIAL TIME STEP SIZE =   87666.66    

 REUSING NON-PARAMETER GHB CELLS FROM LAST STRESS PERIOD

      2 GHB CELLS

 REUSING STREAM SEGMENT DATA FROM LAST STRESS PERIOD



            AREAL INFILTRATION RATE
 READING ON UNIT   19 WITH FORMAT: (FREE)              

            1           2           3           4           5           6           7           8           9          10
 ........................................................................................................................
   1   1.0000E-10  2.0000E-10   0.000       0.000       0.000       0.000       0.000       0.000       0.000       0.000    
   2   2.0000E-10  1.0000E-10  2.0000E-10   0.000       0.000      8.0000E-10  8.0000E-10  5.0000E-10   0.000       0.000    
   3    0.000      5.0000E-10  1.0000E-10  1.0000E-10  8.0000E-10  8.0000E-10  5.0000E-10  5.0000E-10   0.000       0.000    
   4   8.0000E-10  5.0000E-10  1.0000E-10  1.0000E-10  1.0000E-10  1.0000E-10  1.0000E-10  1.0000E-10  2.0000E-10   0.000    
   5   8.0000E-10  5.0000E-10  1.0000E-10  1.0000E-10  1.0000E-10  1.0000E-10  1.0000E-10  1.0000E-10  1.0000E-10  1.0000E-10
   6   8.0000E-10  5.0000E-10  5.0000E-10  2.0000E-10  2.0000E-10  1.0000E-10  1.0000E-10  1.0000E-10  1.0000E-10  5.0000E-10
   7   8.0000E-10  5.0000E-10  5.0000E-10  2.0000E-10  2.0000E-10  1.0000E-10  1.0000E-10  2.0000E-10  2.0000E-10   0.000    
   8    0.000      5.0000E-10  5.0000E-10  2.0000E-10  2.0000E-10  1.0000E-10  1.0000E-10  2.0000E-10  5.0000E-10   0.000    
   9    0.000      5.0000E-10  5.0000E-10  2.0000E-10  2.0000E-10  1.0000E-10  1.0000E-10  2.0000E-10  5.0000E-10   0.000    
  10    0.000      5.0000E-10  5.0000E-10  2.0000E-10  2.0000E-10  1.0000E-10  1.0000E-10  2.0000E-10  5.0000E-10  8.0000E-10
  11    0.000      1.0000E-10  1.0000E-10  1.0000E-10  1.0000E-10  1.0000E-10  1.0000E-10  2.0000E-10  5.0000E-10   0.000    
  12   1.0000E-10  1.0000E-10  1.0000E-10  1.0000E-10  1.0000E-10  1.0000E-10  1.0000E-10  1.0000E-10  2.0000E-10   0.000    
  13   1.0000E-10  1.0000E-10  2.0000E-10  2.0000E-10  2.0000E-10  2.0000E-10  2.0000E-10  1.0000E-10  1.0000E-10   0.000    
  14    0.000      2.0000E-10  5.0000E-10  5.0000E-10  5.0000E-10  5.0000E-10  5.0000E-10  2.0000E-10  1.0000E-10   0.000    
  15    0.000       0.000      8.0000E-10  8.0000E-10  8.0000E-10  8.0000E-10   0.000       0.000       0.000       0.000    

                  ET RATE =  5.000000E-10

 USING ET EXTINCTION DEPTH FROM PREVIOUS STRESS PERIOD. CURRENT PERIOD IS:      39

 USING EXTINCTION WATER CONTENT FROM PREVIOUS STRESS PERIOD. CURRENT PERIOD IS:      39

 USING AIR ENTRY PRESSURE FROM PREVIOUS STRESS PERIOD. CURRENT PERIOD IS:      39

 USING ROOT PRESSURE HEAD FROM PREVIOUS STRESS PERIOD. CURRENT PERIOD IS:      39

 USING ROOT ACTIVITY FROM PREVIOUS STRESS PERIOD. CURRENT PERIOD IS:      39

 PROCESSING AG STRESS PERIOD DATA

 READING AG STRESS PERIOD DATA

 READING IRRIGATION WELL

 NO IRRPOND OR REUSING IRRPOND DATA FROM LAST STRESS PERIOD

 END PROCESSING AG STRESS PERIOD DATA OPTIONS
 
 SOLVING FOR HEAD 
                                                   Max.-Head-Change                         Max.-Flux-Residual
  Residual-Control   Outer-Iter.   Inner-Iter.     Column Row Layer    Maximum-Head-Change  Column Row Layer    Maximum-Flux-Residual          L2-NORM 
          0                 1           2             4    7     1       0.1814130190E-01       4    7    1         0.9513654775E+00      0.2352249110E+01
          0                 2           2             4    7     1      -0.1764660453E-02       4    7    1        -0.9513698160E-01      0.2352242809E+00
          0                 3           1             4    7     1       0.1201667756E-03       4    7    1         0.6659587502E-02      0.1646560826E-01
          0                 4           1             4    7     1      -0.4781552374E-05       4    7    1        -0.2723775274E-03      0.6734424925E-03

    ------------------------------------------------
       NWT REQUIRED            4 OUTER ITERATIONS 
       AND A TOTAL OF          6 INNER ITERATIONS.
    ------------------------------------------------

 NO OUTPUT CONTROL FOR STRESS PERIOD   39   TIME STEP    1
 
 SOLVING FOR HEAD 
                                                   Max.-Head-Change                         Max.-Flux-Residual
  Residual-Control   Outer-Iter.   Inner-Iter.     Column Row Layer    Maximum-Head-Change  Column Row Layer    Maximum-Flux-Residual          L2-NORM 
          0                 1           2             4    7     1       0.1797475386E-01       4    7    1         0.9425871844E+00      0.2335827191E+01
          0                 2           2             4    7     1      -0.1748459736E-02       4    7    1        -0.9425914327E-01      0.2335820838E+00
          0                 3           1             4    7     1       0.1190635680E-03       4    7    1         0.6598138865E-02      0.1635066668E-01
          0                 4           1             4    7     1      -0.4737655026E-05       4    7    1        -0.2698642825E-03      0.6687371206E-03

    ------------------------------------------------
       NWT REQUIRED            4 OUTER ITERATIONS 
       AND A TOTAL OF          6 INNER ITERATIONS.
    ------------------------------------------------

 NO OUTPUT CONTROL FOR STRESS PERIOD   39   TIME STEP    2
 
 SOLVING FOR HEAD 
                                                   Max.-Head-Change                         Max.-Flux-Residual
  Residual-Control   Outer-Iter.   Inner-Iter.     Column Row Layer    Maximum-Head-Change  Column Row Layer    Maximum-Flux-Residual          L2-NORM 
          0                 1           2             4    7     1       0.1781062930E-01       4    7    1         0.9339372483E+00      0.2319614084E+01
          0                 2           2             4    7     1      -0.1732494760E-02       4    7    1        -0.9339414086E-01      0.2319607713E+00
          0                 3           1             4    7     1       0.1179764135E-03       4    7    1         0.6537588757E-02      0.1623717999E-01
          0                 4           1             4    7     1      -0.4694395485E-05       4    7    1        -0.2673877668E-03      0.6641175743E-03

    ------------------------------------------------
       NWT REQUIRED            4 OUTER ITERATIONS 
       AND A TOTAL OF          6 INNER ITERATIONS.
    ------------------------------------------------

 NO OUTPUT CONTROL FOR STRESS PERIOD   39   TIME STEP    3
 
 SOLVING FOR HEAD 
                                                   Max.-Head-Change                         Max.-Flux-Residual
  Residual-Control   Outer-Iter.   Inner-Iter.     Column Row Layer    Maximum-Head-Change  Column Row Layer    Maximum-Flux-Residual          L2-NORM 
          0                 1           2             4    7     1       0.1764874586E-01       4    7    1         0.9254056550E+00      0.2303605852E+01
          0                 2           2             4    7     1      -0.1716747788E-02       4    7    1        -0.9254097292E-01      0.2303599293E+00
          0                 3           1             4    7     1       0.1169041041E-03       4    7    1         0.6477867048E-02      0.1612511969E-01
          0                 4           1             4    7     1      -0.4651727699E-05       4    7    1        -0.2649451455E-03      0.6595151301E-03

    ------------------------------------------------
       NWT REQUIRED            4 OUTER ITERATIONS 
       AND A TOTAL OF          6 INNER ITERATIONS.
    ------------------------------------------------

 NO OUTPUT CONTROL FOR STRESS PERIOD   39   TIME STEP    4
 
 SOLVING FOR HEAD 
                                                   Max.-Head-Change                         Max.-Flux-Residual
  Residual-Control   Outer-Iter.   Inner-Iter.     Column Row Layer    Maximum-Head-Change  Column Row Layer    Maximum-Flux-Residual          L2-NORM 
          0                 1           2             4    7     1       0.1748919352E-01       4    7    1         0.9169975709E+00      0.2287798094E+01
          0                 2           2             4    7     1      -0.1703609256E-02       4    7    1        -0.9185472949E-01      0.2288218605E+00
          0                 3           1             4    7     1       0.1160094155E-03       4    7    1         0.6429829756E-02      0.1601745013E-01
          0                 4           1             4    7     1      -0.4616127022E-05       4    7    1        -0.2629804201E-03      0.6551123866E-03

    ------------------------------------------------
       NWT REQUIRED            4 OUTER ITERATIONS 
       AND A TOTAL OF          6 INNER ITERATIONS.
    ------------------------------------------------

 NO OUTPUT CONTROL FOR STRESS PERIOD   39   TIME STEP    5
 
 SOLVING FOR HEAD 
                                                   Max.-Head-Change                         Max.-Flux-Residual
  Residual-Control   Outer-Iter.   Inner-Iter.     Column Row Layer    Maximum-Head-Change  Column Row Layer    Maximum-Flux-Residual          L2-NORM 
          0                 1           2             4    7     1       0.1732598799E-01       4    7    1         0.9085760893E+00      0.2272158082E+01
          0                 2           2             4    7     1      -0.1685352375E-02       4    7    1        -0.9085802587E-01      0.2272151598E+00
          0                 3           1             4    7     1       0.1147661916E-03       4    7    1         0.6360060608E-02      0.1590499705E-01
          0                 4           1             4    7     1      -0.4566658074E-05       4    7    1        -0.2601268641E-03      0.6505195368E-03

    ------------------------------------------------
       NWT REQUIRED            4 OUTER ITERATIONS 
       AND A TOTAL OF          6 INNER ITERATIONS.
    ------------------------------------------------

 NO OUTPUT CONTROL FOR STRESS PERIOD   39   TIME STEP    6
 
 SOLVING FOR HEAD 
                                                   Max.-Head-Change                         Max.-Flux-Residual
  Residual-Control   Outer-Iter.   Inner-Iter.     Column Row Layer    Maximum-Head-Change  Column Row Layer    Maximum-Flux-Residual          L2-NORM 
          0                 1           2             4    7     1       0.1716774941E-01       4    7    1         0.9002263822E+00      0.2256700286E+01
          0                 2           2             4    7     1      -0.1669959934E-02       4    7    1        -0.9002304559E-01      0.2256693661E+00
          0                 3           1             4    7     1       0.1137180250E-03       4    7    1         0.6301612065E-02      0.1579675345E-01
          0                 4           1             4    7     1      -0.4524950222E-05       4    7    1        -0.2577363091E-03      0.6460775664E-03

    ------------------------------------------------
       NWT REQUIRED            4 OUTER ITERATIONS 
       AND A TOTAL OF          6 INNER ITERATIONS.
    ------------------------------------------------

 NO OUTPUT CONTROL FOR STRESS PERIOD   39   TIME STEP    7
 
 SOLVING FOR HEAD 
                                                   Max.-Head-Change                         Max.-Flux-Residual
  Residual-Control   Outer-Iter.   Inner-Iter.     Column Row Layer    Maximum-Head-Change  Column Row Layer    Maximum-Flux-Residual          L2-NORM 
          0                 1           2             4    7     1       0.1701196124E-01       4    7    1         0.8920072764E+00      0.2241435455E+01
          0                 2           2             4    7     1      -0.1654805856E-02       4    7    1        -0.8920112572E-01      0.2241428670E+00
          0                 3           1             4    7     1       0.1126860899E-03       4    7    1         0.6244077745E-02      0.1568991207E-01
          0                 4           1             4    7     1      -0.4483888697E-05       4    7    1        -0.2553831514E-03      0.6417081938E-03

    ------------------------------------------------
       NWT REQUIRED            4 OUTER ITERATIONS 
       AND A TOTAL OF          6 INNER ITERATIONS.
    ------------------------------------------------

 NO OUTPUT CONTROL FOR STRESS PERIOD   39   TIME STEP    8
 
 SOLVING FOR HEAD 
                                                   Max.-Head-Change                         Max.-Flux-Residual
  Residual-Control   Outer-Iter.   Inner-Iter.     Column Row Layer    Maximum-Head-Change  Column Row Layer    Maximum-Flux-Residual          L2-NORM 
          0                 1           2             4    7     1       0.1685842939E-01       4    7    1         0.8839079091E+00      0.2226356649E+01
          0                 2           2             4    7     1      -0.1639871261E-02       4    7    1        -0.8839117997E-01      0.2226350078E+00
          0                 3           1             4    7     1       0.1116691006E-03       4    7    1         0.6187381595E-02      0.1558437588E-01
          0                 4           1             4    7     1      -0.4443421806E-05       4    7    1        -0.2530642867E-03      0.6377354763E-03

    ------------------------------------------------
       NWT REQUIRED            4 OUTER ITERATIONS 
       AND A TOTAL OF          6 INNER ITERATIONS.
    ------------------------------------------------

 NO OUTPUT CONTROL FOR STRESS PERIOD   39   TIME STEP    9
 
 SOLVING FOR HEAD 
                                                   Max.-Head-Change                         Max.-Flux-Residual
  Residual-Control   Outer-Iter.   Inner-Iter.     Column Row Layer    Maximum-Head-Change  Column Row Layer    Maximum-Flux-Residual          L2-NORM 
          0                 1           2             4    7     1       0.1670723959E-01       4    7    1         0.8759328402E+00      0.2211482481E+01
          0                 2           2             4    7     1      -0.1625164486E-02       4    7    1        -0.8759366433E-01      0.2211475594E+00
          0                 3           1             4    7     1       0.1106676249E-03       4    7    1         0.6131555560E-02      0.1548023269E-01
          0                 4           1             4    7     1      -0.4403572229E-05       4    7    1        -0.2507809886E-03      0.6331347067E-03

    ------------------------------------------------
       NWT REQUIRED            4 OUTER ITERATIONS 
       AND A TOTAL OF          6 INNER ITERATIONS.
    ------------------------------------------------

 NO OUTPUT CONTROL FOR STRESS PERIOD   39   TIME STEP   10
 
 SOLVING FOR HEAD 
                                                   Max.-Head-Change                         Max.-Flux-Residual
  Residual-Control   Outer-Iter.   Inner-Iter.     Column Row Layer    Maximum-Head-Change  Column Row Layer    Maximum-Flux-Residual          L2-NORM 
          0                 1           2             4    7     1       0.1655832815E-01       4    7    1         0.8680792026E+00      0.2196780830E+01
          0                 2           2             4    7     1      -0.1610679337E-02       4    7    1        -0.8680829207E-01      0.2196773949E+00
          0                 3           1             4    7     1       0.1096812413E-03       4    7    1         0.6076579558E-02      0.1537732193E-01
          0                 4           1             4    7     1      -0.4364322928E-05       4    7    1        -0.2485324731E-03      0.6289314895E-03

    ------------------------------------------------
       NWT REQUIRED            4 OUTER ITERATIONS 
       AND A TOTAL OF          6 INNER ITERATIONS.
    ------------------------------------------------

 NO OUTPUT CONTROL FOR STRESS PERIOD   39   TIME STEP   11
 
 SOLVING FOR HEAD 
                                                   Max.-Head-Change                         Max.-Flux-Residual
  Residual-Control   Outer-Iter.   Inner-Iter.     Column Row Layer    Maximum-Head-Change  Column Row Layer    Maximum-Flux-Residual          L2-NORM 
          0                 1           2             4    7     1       0.1641164371E-01       4    7    1         0.8603436948E+00      0.2182268427E+01
          0                 2           2             4    7     1      -0.1596410819E-02       4    7    1        -0.8603473304E-01      0.2182261456E+00
          0                 3           1             4    7     1       0.1087096090E-03       4    7    1         0.6022430468E-02      0.1527573269E-01
          0                 4           1             4    7     1      -0.4325660892E-05       4    7    1        -0.2463177650E-03      0.6247689803E-03

    ------------------------------------------------
       NWT REQUIRED            4 OUTER ITERATIONS 
       AND A TOTAL OF          6 INNER ITERATIONS.
    ------------------------------------------------

 NO OUTPUT CONTROL FOR STRESS PERIOD   39   TIME STEP   12
 
 SOLVING FOR HEAD 
                                                   Max.-Head-Change                         Max.-Flux-Residual
  Residual-Control   Outer-Iter.   Inner-Iter.     Column Row Layer    Maximum-Head-Change  Column Row Layer    Maximum-Flux-Residual          L2-NORM 
          0                 1           2             4    7     1       0.1626699719E-01       4    7    1         0.8527163410E+00      0.2167927837E+01
          0                 2           2             4    7     1      -0.1582340538E-02       4    7    1        -0.8527198962E-01      0.2167921009E+00
          0                 3           1             4    7     1       0.1077514762E-03       4    7    1         0.5969038487E-02      0.1517537647E-01
          0                 4           1             4    7     1      -0.4287535812E-05       4    7    1        -0.2441340330E-03      0.6207200416E-03

    ------------------------------------------------
       NWT REQUIRED            4 OUTER ITERATIONS 
       AND A TOTAL OF          6 INNER ITERATIONS.
    ------------------------------------------------

 NO OUTPUT CONTROL FOR STRESS PERIOD   39   TIME STEP   13
 
 SOLVING FOR HEAD 
                                                   Max.-Head-Change                         Max.-Flux-Residual
  Residual-Control   Outer-Iter.   Inner-Iter.     Column Row Layer    Maximum-Head-Change  Column Row Layer    Maximum-Flux-Residual          L2-NORM 
          0                 1           2             4    7     1       0.1612461279E-01       4    7    1         0.8452092756E+00      0.2153768431E+01
          0                 2           2             4    7     1      -0.1568490303E-02       4    7    1        -0.8452127531E-01      0.2153761503E+00
          0                 3           1             4    7     1       0.1068083275E-03       4    7    1         0.5916488535E-02      0.1507625446E-01
          0                 4           1             4    7     1      -0.4250006632E-05       4    7    1        -0.2419847328E-03      0.6166090353E-03

    ------------------------------------------------
       NWT REQUIRED            4 OUTER ITERATIONS 
       AND A TOTAL OF          6 INNER ITERATIONS.
    ------------------------------------------------

 NO OUTPUT CONTROL FOR STRESS PERIOD   39   TIME STEP   14
 
 SOLVING FOR HEAD 
                                                   Max.-Head-Change                         Max.-Flux-Residual
  Residual-Control   Outer-Iter.   Inner-Iter.     Column Row Layer    Maximum-Head-Change  Column Row Layer    Maximum-Flux-Residual          L2-NORM 
          0                 1           2             4    7     1       0.1598416603E-01       4    7    1         0.8378048715E+00      0.2139782597E+01
          0                 2           2             4    7     1      -0.1554828551E-02       4    7    1        -0.8378082732E-01      0.2139775580E+00
          0                 3           1             4    7     1       0.1058780144E-03       4    7    1         0.5864657240E-02      0.1497834033E-01
          0                 4           1             4    7     1      -0.4212988733E-05       4    7    1        -0.2398648314E-03      0.6126157513E-03

    ------------------------------------------------
       NWT REQUIRED            4 OUTER ITERATIONS 
       AND A TOTAL OF          6 INNER ITERATIONS.
    ------------------------------------------------

 NO OUTPUT CONTROL FOR STRESS PERIOD   39   TIME STEP   15
 
 SOLVING FOR HEAD 
                                                   Max.-Head-Change                         Max.-Flux-Residual
  Residual-Control   Outer-Iter.   Inner-Iter.     Column Row Layer    Maximum-Head-Change  Column Row Layer    Maximum-Flux-Residual          L2-NORM 
          0                 1           2             4    7     1       0.1584574679E-01       4    7    1         0.8305082443E+00      0.2125965676E+01
          0                 2           2             4    7     1      -0.1541364024E-02       4    7    1        -0.8305115723E-01      0.2125958585E+00
          0                 3           1             4    7     1       0.1049611309E-03       4    7    1         0.5813580370E-02      0.1488162913E-01
          0                 4           1             4    7     1      -0.4176505257E-05       4    7    1        -0.2377757921E-03      0.6086587467E-03

    ------------------------------------------------
       NWT REQUIRED            4 OUTER ITERATIONS 
       AND A TOTAL OF          6 INNER ITERATIONS.
    ------------------------------------------------

 NO OUTPUT CONTROL FOR STRESS PERIOD   39   TIME STEP   16
 
 SOLVING FOR HEAD 
                                                   Max.-Head-Change                         Max.-Flux-Residual
  Residual-Control   Outer-Iter.   Inner-Iter.     Column Row Layer    Maximum-Head-Change  Column Row Layer    Maximum-Flux-Residual          L2-NORM 
          0                 1           2             4    7     1       0.1570931100E-01       4    7    1         0.8233167406E+00      0.2112317667E+01
          0                 2           2             4    7     1      -0.1528092436E-02       4    7    1        -0.8233199971E-01      0.2112310609E+00
          0                 3           1             4    7     1       0.1040573856E-03       4    7    1         0.5763239389E-02      0.1478607692E-01
          0                 4           1             4    7     1      -0.4140544000E-05       4    7    1        -0.2357168189E-03      0.6047329553E-03

    ------------------------------------------------
       NWT REQUIRED            4 OUTER ITERATIONS 
       AND A TOTAL OF          6 INNER ITERATIONS.
    ------------------------------------------------

 NO OUTPUT CONTROL FOR STRESS PERIOD   39   TIME STEP   17
 
 SOLVING FOR HEAD 
                                                   Max.-Head-Change                         Max.-Flux-Residual
  Residual-Control   Outer-Iter.   Inner-Iter.     Column Row Layer    Maximum-Head-Change  Column Row Layer    Maximum-Flux-Residual          L2-NORM 
          0                 1           2             4    7     1       0.1557481279E-01       4    7    1         0.8162280758E+00      0.2098834130E+01
          0                 2           2             4    7     1      -0.1515009324E-02       4    7    1        -0.8162312625E-01      0.2098826943E+00
          0                 3           1             4    7     1       0.1031664752E-03       4    7    1         0.5713618285E-02      0.1469169580E-01
          0                 4           1             4    7     1      -0.4105093909E-05       4    7    1        -0.2336873242E-03      0.6008878805E-03

    ------------------------------------------------
       NWT REQUIRED            4 OUTER ITERATIONS 
       AND A TOTAL OF          6 INNER ITERATIONS.
    ------------------------------------------------

 NO OUTPUT CONTROL FOR STRESS PERIOD   39   TIME STEP   18
 
 SOLVING FOR HEAD 
                                                   Max.-Head-Change                         Max.-Flux-Residual
  Residual-Control   Outer-Iter.   Inner-Iter.     Column Row Layer    Maximum-Head-Change  Column Row Layer    Maximum-Flux-Residual          L2-NORM 
          0                 1           2             4    7     1       0.1544221097E-01       4    7    1         0.8092398718E+00      0.2085510940E+01
          0                 2           2             4    7     1      -0.1502110682E-02       4    7    1        -0.8092429907E-01      0.2085503748E+00
          0                 3           1             4    7     1       0.1022881265E-03       4    7    1         0.5664700426E-02      0.1459843872E-01
          0                 4           1             4    7     1      -0.4070143587E-05       4    7    1        -0.2316865798E-03      0.5970701965E-03

    ------------------------------------------------
       NWT REQUIRED            4 OUTER ITERATIONS 
       AND A TOTAL OF          6 INNER ITERATIONS.
    ------------------------------------------------

 NO OUTPUT CONTROL FOR STRESS PERIOD   39   TIME STEP   19
 
 SOLVING FOR HEAD 
                                                   Max.-Head-Change                         Max.-Flux-Residual
  Residual-Control   Outer-Iter.   Inner-Iter.     Column Row Layer    Maximum-Head-Change  Column Row Layer    Maximum-Flux-Residual          L2-NORM 
          0                 1           2             4    7     1       0.1531145929E-01       4    7    1         0.8023499924E+00      0.2072348920E+01
          0                 2           2             4    7     1      -0.1489392012E-02       4    7    1        -0.8023530453E-01      0.2072341901E+00
          0                 3           1             4    7     1       0.1014220332E-03       4    7    1         0.5616470859E-02      0.1450628536E-01
          0                 4           1             4    7     1      -0.4035681176E-05       4    7    1        -0.2297139893E-03      0.5932728695E-03

    ------------------------------------------------
       NWT REQUIRED            4 OUTER ITERATIONS 
       AND A TOTAL OF          6 INNER ITERATIONS.
    ------------------------------------------------

 NO OUTPUT CONTROL FOR STRESS PERIOD   39   TIME STEP   20
 
 SOLVING FOR HEAD 
                                                   Max.-Head-Change                         Max.-Flux-Residual
  Residual-Control   Outer-Iter.   Inner-Iter.     Column Row Layer    Maximum-Head-Change  Column Row Layer    Maximum-Flux-Residual          L2-NORM 
          0                 1           2             4    7     1       0.1518252196E-01       4    7    1         0.7955560403E+00      0.2059345464E+01
          0                 2           2             4    7     1      -0.1476849831E-02       4    7    1        -0.7955590292E-01      0.2059338362E+00
          0                 3           1             4    7     1       0.1005679579E-03       4    7    1         0.5568912771E-02      0.1441528620E-01
          0                 4           1             4    7     1      -0.4001696545E-05       4    7    1        -0.2277688573E-03      0.5895845325E-03

    ------------------------------------------------
       NWT REQUIRED            4 OUTER ITERATIONS 
       AND A TOTAL OF          6 INNER ITERATIONS.
    ------------------------------------------------

 NO OUTPUT CONTROL FOR STRESS PERIOD   39   TIME STEP   21
 
 SOLVING FOR HEAD 
                                                   Max.-Head-Change                         Max.-Flux-Residual
  Residual-Control   Outer-Iter.   Inner-Iter.     Column Row Layer    Maximum-Head-Change  Column Row Layer    Maximum-Flux-Residual          L2-NORM 
          0                 1           2             4    7     1       0.1505535423E-01       4    7    1         0.7888561592E+00      0.2046492784E+01
          0                 2           2             4    7     1      -0.1464479785E-02       4    7    1        -0.7888590855E-01      0.2046485620E+00
          0                 3           1             4    7     1       0.9972560475E-04       4    7    1         0.5522013214E-02      0.1432532412E-01

    ------------------------------------------------
       NWT REQUIRED            3 OUTER ITERATIONS 
       AND A TOTAL OF          5 INNER ITERATIONS.
    ------------------------------------------------

 NO OUTPUT CONTROL FOR STRESS PERIOD   39   TIME STEP   22
 
 SOLVING FOR HEAD 
                                                   Max.-Head-Change                         Max.-Flux-Residual
  Residual-Control   Outer-Iter.   Inner-Iter.     Column Row Layer    Maximum-Head-Change  Column Row Layer    Maximum-Flux-Residual          L2-NORM 
          0                 1           2             4    7     1       0.1492987498E-01       4    7    1         0.7822456378E+00      0.2033785680E+01
          0                 2           2             4    7     1      -0.1452273985E-02       4    7    1        -0.7822485031E-01      0.2033778480E+00
          0                 3           1             4    7     1       0.9889443591E-04       4    7    1         0.5475739181E-02      0.1423637630E-01

    ------------------------------------------------
       NWT REQUIRED            3 OUTER ITERATIONS 
       AND A TOTAL OF          5 INNER ITERATIONS.
    ------------------------------------------------

 NO OUTPUT CONTROL FOR STRESS PERIOD   39   TIME STEP   23
 
 SOLVING FOR HEAD 
                                                   Max.-Head-Change                         Max.-Flux-Residual
  Residual-Control   Outer-Iter.   Inner-Iter.     Column Row Layer    Maximum-Head-Change  Column Row Layer    Maximum-Flux-Residual          L2-NORM 
          0                 1           2             4    7     1       0.1480622814E-01       4    7    1         0.7757323985E+00      0.2021235292E+01
          0                 2           2             4    7     1      -0.1440246432E-02       4    7    1        -0.7757352050E-01      0.2021228166E+00
          0                 3           1             4    7     1       0.9807540498E-04       4    7    1         0.5430146126E-02      0.1414964746E-01

    ------------------------------------------------
       NWT REQUIRED            3 OUTER ITERATIONS 
       AND A TOTAL OF          5 INNER ITERATIONS.
    ------------------------------------------------

 NO OUTPUT CONTROL FOR STRESS PERIOD   39   TIME STEP   24
 
 SOLVING FOR HEAD 
                                                   Max.-Head-Change                         Max.-Flux-Residual
  Residual-Control   Outer-Iter.   Inner-Iter.     Column Row Layer    Maximum-Head-Change  Column Row Layer    Maximum-Flux-Residual          L2-NORM 
          0                 1           2             4    7     1       0.1468410282E-01       4    7    1         0.7692995353E+00      0.2008827940E+01
          0                 2           2             4    7     1      -0.1428366883E-02       4    7    1        -0.7693022839E-01      0.2008820739E+00
          0                 3           1             4    7     1       0.9726645266E-04       4    7    1         0.5385115710E-02      0.1406165450E-01

    ------------------------------------------------
       NWT REQUIRED            3 OUTER ITERATIONS 
       AND A TOTAL OF          5 INNER ITERATIONS.
    ------------------------------------------------

 NO OUTPUT CONTROL FOR STRESS PERIOD   39   TIME STEP   25
 
 SOLVING FOR HEAD 
                                                   Max.-Head-Change                         Max.-Flux-Residual
  Residual-Control   Outer-Iter.   Inner-Iter.     Column Row Layer    Maximum-Head-Change  Column Row Layer    Maximum-Flux-Residual          L2-NORM 
          0                 1           2             4    7     1       0.1456373875E-01       4    7    1         0.7629601915E+00      0.1996562499E+01
          0                 2           2             4    7     1      -0.1416658658E-02       4    7    1        -0.7629628841E-01      0.1996555255E+00
          0                 3           1             4    7     1       0.9646916632E-04       4    7    1         0.5340739934E-02      0.1397581615E-01

    ------------------------------------------------
       NWT REQUIRED            3 OUTER ITERATIONS 
       AND A TOTAL OF          5 INNER ITERATIONS.
    ------------------------------------------------

 NO OUTPUT CONTROL FOR STRESS PERIOD   39   TIME STEP   26
 
 SOLVING FOR HEAD 
                                                   Max.-Head-Change                         Max.-Flux-Residual
  Residual-Control   Outer-Iter.   Inner-Iter.     Column Row Layer    Maximum-Head-Change  Column Row Layer    Maximum-Flux-Residual          L2-NORM 
          0                 1           2             4    7     1       0.1444495994E-01       4    7    1         0.7567048491E+00      0.1984445883E+01
          0                 2           2             4    7     1      -0.1405104637E-02       4    7    1        -0.7567074869E-01      0.1984438957E+00
          0                 3           1             4    7     1       0.9568238141E-04       4    7    1         0.5296952199E-02      0.1389101480E-01

    ------------------------------------------------
       NWT REQUIRED            3 OUTER ITERATIONS 
       AND A TOTAL OF          5 INNER ITERATIONS.
    ------------------------------------------------

 NO OUTPUT CONTROL FOR STRESS PERIOD   39   TIME STEP   27
 
 SOLVING FOR HEAD 
                                                   Max.-Head-Change                         Max.-Flux-Residual
  Residual-Control   Outer-Iter.   Inner-Iter.     Column Row Layer    Maximum-Head-Change  Column Row Layer    Maximum-Flux-Residual          L2-NORM 
          0                 1           2             4    7     1       0.1432773663E-01       4    7    1         0.7505316991E+00      0.1972461071E+01
          0                 2           2             4    7     1      -0.1393701926E-02       4    7    1        -0.7505342837E-01      0.1972453982E+00
          0                 3           1             4    7     1       0.9490589972E-04       4    7    1         0.5253739812E-02      0.1380710156E-01

    ------------------------------------------------
       NWT REQUIRED            3 OUTER ITERATIONS 
       AND A TOTAL OF          5 INNER ITERATIONS.
    ------------------------------------------------

 NO OUTPUT CONTROL FOR STRESS PERIOD   39   TIME STEP   28
 
 SOLVING FOR HEAD 
                                                   Max.-Head-Change                         Max.-Flux-Residual
  Residual-Control   Outer-Iter.   Inner-Iter.     Column Row Layer    Maximum-Head-Change  Column Row Layer    Maximum-Flux-Residual          L2-NORM 
          0                 1           2             4    7     1       0.1421216927E-01       4    7    1         0.7444465161E+00      0.1960626364E+01
          0                 2           2             4    7     1      -0.1382460297E-02       4    7    1        -0.7444490490E-01      0.1960619124E+00
          0                 3           1             4    7     1       0.9414038712E-04       4    7    1         0.5211143191E-02      0.1372426201E-01

    ------------------------------------------------
       NWT REQUIRED            3 OUTER ITERATIONS 
       AND A TOTAL OF          5 INNER ITERATIONS.
    ------------------------------------------------

 NO OUTPUT CONTROL FOR STRESS PERIOD   39   TIME STEP   29
 
 SOLVING FOR HEAD 
                                                   Max.-Head-Change                         Max.-Flux-Residual
  Residual-Control   Outer-Iter.   Inner-Iter.     Column Row Layer    Maximum-Head-Change  Column Row Layer    Maximum-Flux-Residual          L2-NORM 
          0                 1           2             4    7     1       0.1409808555E-01       4    7    1         0.7384398744E+00      0.1948916866E+01
          0                 2           2             4    7     1      -0.1371362986E-02       4    7    1        -0.7384423567E-01      0.1948909844E+00
          0                 3           1             4    7     1       0.9338470203E-04       4    7    1         0.5169096373E-02      0.1364230147E-01

    ------------------------------------------------
       NWT REQUIRED            3 OUTER ITERATIONS 
       AND A TOTAL OF          5 INNER ITERATIONS.
    ------------------------------------------------

 NO OUTPUT CONTROL FOR STRESS PERIOD   39   TIME STEP   30



 STREAM LISTING     PERIOD     39   STEP       30

 LAYER ROW COL. STREAM  RCH.  FLOW INTO     FLOW TO   FLOW OUT OF   OVRLND.     DIRECT     STREAM       STREAM     STREAM     STREAM   STREAMBED  STREAMBED
                SEG.NO.  NO.  STRM. RCH.    AQUIFER    STRM. RCH.    RUNOFF     PRECIP       ET          HEAD       DEPTH      WIDTH   CONDCTNC.   GRADIENT

   1    1    1     1     1    1.9000E+01  2.1427E-01   1.8786E+01  0.000E+00  0.000E+00  0.000E+00  1.09413E+03  1.082E+00  1.166E+01  5.249E-02  1.361E+00
   1    2    2     1     2    1.8786E+01  3.3054E-01   1.8455E+01  0.000E+00  0.000E+00  0.000E+00  1.08914E+03  1.077E+00  1.158E+01  8.107E-02  1.359E+00
   1    3    3     1     3    1.8455E+01  2.8064E-01   1.8175E+01  0.000E+00  0.000E+00  0.000E+00  1.08349E+03  1.072E+00  1.149E+01  6.892E-02  1.357E+00
   1    3    4     1     4    1.8175E+01  2.5740E-01   1.7917E+01  0.000E+00  0.000E+00  0.000E+00  1.07848E+03  1.068E+00  1.140E+01  6.328E-02  1.356E+00
   1    4    5     2     1    1.5917E+01  3.0542E-01   1.5612E+01  0.000E+00  0.000E+00  0.000E+00  1.07285E+03  9.157E-01  1.200E+01  7.800E-02  1.305E+00
   1    5    6     2     2    1.5612E+01  2.3438E-01   1.5377E+01  0.000E+00  0.000E+00  0.000E+00  1.06742E+03  9.063E-01  1.200E+01  6.000E-02  1.302E+00
   1    6    6     2     3    1.5377E+01  2.3388E-01   1.5143E+01  0.000E+00  0.000E+00  0.000E+00  1.06269E+03  8.980E-01  1.200E+01  6.000E-02  1.299E+00
   1    7    6     2     4    1.5143E+01  2.3338E-01   1.4910E+01  0.000E+00  0.000E+00  0.000E+00  1.05797E+03  8.897E-01  1.200E+01  6.000E-02  1.297E+00
   1    8    6     2     5    1.4910E+01  2.3289E-01   1.4677E+01  0.000E+00  0.000E+00  0.000E+00  1.05324E+03  8.814E-01  1.200E+01  6.000E-02  1.294E+00
   1    3    5     3     1    2.0000E+00  2.8252E-01   1.7175E+00  0.000E+00  0.000E+00  0.000E+00  1.07555E+03  1.909E+00  9.636E+00  7.227E-02  1.955E+00
   1    3    6     3     2    1.7175E+00  2.4905E-01   1.4684E+00  0.000E+00  0.000E+00  0.000E+00  1.07264E+03  1.727E+00  8.909E+00  6.682E-02  1.864E+00
   1    3    7     3     3    1.4684E+00  1.9718E-01   1.2712E+00  0.000E+00  0.000E+00  0.000E+00  1.06987E+03  1.555E+00  8.218E+00  5.547E-02  1.777E+00
   1    4    8     3     4    1.2712E+00  2.2567E-01   1.0456E+00  0.000E+00  0.000E+00  0.000E+00  1.06682E+03  1.364E+00  7.455E+00  6.709E-02  1.682E+00
   1    5    8     3     5    1.0456E+00  1.5790E-01   8.8768E-01  0.000E+00  0.000E+00  0.000E+00  1.06362E+03  1.164E+00  6.655E+00  4.991E-02  1.582E+00
   1    6    8     3     6    8.8768E-01  5.5980E-02   8.3170E-01  0.000E+00  0.000E+00  0.000E+00  1.06158E+03  1.036E+00  6.145E+00  1.844E-02  1.518E+00
   1    5   10     4     1    1.0000E+01  9.0919E-02   9.9091E+00  0.000E+00  0.000E+00  0.000E+00  1.07836E+03  6.368E-01  1.000E+01  2.500E-02  1.212E+00
   1    5    9     4     2    9.9091E+00  1.8158E-01   9.7275E+00  0.000E+00  0.000E+00  0.000E+00  1.07154E+03  6.315E-01  1.000E+01  5.000E-02  1.211E+00
   1    6    8     4     3    9.7275E+00  1.2689E-01   9.6006E+00  0.000E+00  0.000E+00  0.000E+00  1.06381E+03  6.256E-01  1.000E+01  3.500E-02  1.209E+00
   1    6    8     5     1    1.0432E+01  2.2686E-01   1.0205E+01  0.000E+00  0.000E+00  0.000E+00  1.05868E+03  6.790E-01  1.542E+01  6.166E-02  1.226E+00
   1    7    7     5     2    1.0205E+01  2.7894E-01   9.9265E+00  0.000E+00  0.000E+00  0.000E+00  1.05417E+03  6.732E-01  1.519E+01  7.594E-02  1.224E+00
   1    8    7     5     3    9.9265E+00  1.9221E-01   9.7343E+00  0.000E+00  0.000E+00  0.000E+00  1.04992E+03  6.676E-01  1.497E+01  5.241E-02  1.223E+00
   1    8    6     5     4    9.7343E+00  1.3577E-01   9.5985E+00  0.000E+00  0.000E+00  0.000E+00  1.04691E+03  6.637E-01  1.482E+01  3.706E-02  1.221E+00
   1    9    6     6     1    2.4276E+01  2.5176E-01   2.4024E+01  0.000E+00  0.000E+00  0.000E+00  1.04392E+03  1.196E+00  1.200E+01  6.000E-02  1.399E+00
   1   10    7     6     2    2.4024E+01  2.5131E-01   2.3773E+01  0.000E+00  0.000E+00  0.000E+00  1.03937E+03  1.188E+00  1.200E+01  6.000E-02  1.396E+00
   1   11    7     6     3    2.3773E+01  2.5086E-01   2.3522E+01  0.000E+00  0.000E+00  0.000E+00  1.03482E+03  1.181E+00  1.200E+01  6.000E-02  1.394E+00
   1   12    7     6     4    2.3522E+01  2.5041E-01   2.3271E+01  0.000E+00  0.000E+00  0.000E+00  1.03026E+03  1.173E+00  1.200E+01  6.000E-02  1.391E+00
   1   13    7     6     5    2.3271E+01  9.5985E-03   2.3262E+01  0.000E+00  0.000E+00  0.000E+00  1.02708E+03  1.170E+00  1.200E+01  2.400E-02  1.333E-01
   1   14    9     7     1    1.5000E+02  1.3635E+00   1.4864E+02  0.000E+00  0.000E+00  0.000E+00  1.03987E+03  2.288E+00  5.529E+01  5.593E-01  8.126E-01
   1   13    8     7     2    1.4864E+02  1.9484E+00   1.4669E+02  0.000E+00  0.000E+00  0.000E+00  1.03478E+03  2.279E+00  5.525E+01  6.148E-01  1.056E+00
   1   13    7     7     3    1.4669E+02  1.6806E+00   1.4501E+02  0.000E+00  0.000E+00  0.000E+00  1.02969E+03  2.269E+00  5.521E+01  5.584E-01  1.003E+00
   1   13    6     8     1    1.6827E+02  1.1216E+00   1.6715E+02  0.000E+00  0.000E+00  0.000E+00  1.02481E+03  2.937E+00  4.259E+01  4.340E-01  8.614E-01
   1   13    5     8     2    1.6715E+02  3.6529E-01   1.6678E+02  0.000E+00  0.000E+00  0.000E+00  1.01856E+03  2.932E+00  4.252E+01  4.333E-01  2.810E-01
   1   13    4     8     3    1.6678E+02 -1.7908E+00   1.6857E+02  0.000E+00  0.000E+00  0.000E+00  1.01231E+03  2.937E+00  4.259E+01  4.340E+00 -1.376E-01
   1   13    3     8     4    1.6857E+02 -3.3396E+00   1.7191E+02  0.000E+00  0.000E+00  0.000E+00  1.00608E+03  2.954E+00  4.283E+01  4.365E+00 -2.551E-01
   1   13    2     8     5    1.7191E+02 -2.5038E+00   1.7442E+02  0.000E+00  0.000E+00  0.000E+00  9.99848E+02  2.973E+00  4.310E+01  4.392E+00 -1.900E-01
   1   13    1     8     6    1.7442E+02 -1.9641E+00   1.7638E+02  0.000E+00  0.000E+00  0.000E+00  9.94862E+02  2.987E+00  4.331E+01  2.648E+00 -2.472E-01





UNSATURATED ZONE PACKAGE VOLUMETRIC BUDGET FOR  TIME STEP    30 STRESS PERIOD   39
  ------------------------------------------------------------------------------



     CUMULATIVE VOLUMES      L**3       RATES FOR THIS TIME STEP      L**3/T
     ------------------                 ------------------------

           IN:                                      IN:
           ---                                      ---
        INFILTRATION =  1296472250.7067          INFILTRATION =           0.8475

          OUT:                                     OUT:
          ----                                     ----
              UZF ET =  1294607671.7629                UZF ET =           0.7500
        UZF RECHARGE =       73224.0000          UZF RECHARGE =       0.0000E+00

            IN - OUT =     1791354.9438              IN - OUT =       9.7500E-02

          STORAGE:                                 STORAGE:
          --------                                 --------
      STORAGE CHANGE =     1791346.5545        STORAGE CHANGE =       9.7500E-02

 PERCENT DISCREPANCY IS DIFFERENCE BETWEEN IN-OUT MINUS CHANGE IN STORAGE
 DIVIDED BY THE AVERAGE OF IN AND OUT TIMES 100

 PERCENT DISCREPANCY =           0.00     PERCENT DISCREPANCY =           0.00






1
  VOLUMETRIC BUDGET FOR AGRICULTURAL FIELDS AT  END OF TIME STEP   30, STRESS PERIOD  39
  ------------------------------------------------------------------------------

     CUMULATIVE VOLUMES      L**3       RATES FOR THIS TIME STEP      L**3/T
     ------------------                 ------------------------

           IN:                                      IN:
           ---                                      ---
               AG WELLS  =  1211695232.0000                 AG WELLS  =           0.0000
      DIVERSION SEGMENTS =           0.0000        DIVERSION SEGMENTS =           0.0000
       IRRIGATION PONDS  =           0.0000         IRRIGATION PONDS  =           0.0000
           GW IRRIGATION =           0.0000             GW IRRIGATION =           0.0000
           SW IRRIGATION =           0.0000             SW IRRIGATION =           0.0000
        SYSTEM LOSSES GW =           0.0000          SYSTEM LOSSES GW =           0.0000
        SYSTEM LOSSES SW =           0.0000          SYSTEM LOSSES SW =           0.0000

                TOTAL IN =  1211695232.0000                  TOTAL IN =           0.0000

          OUT:                                     OUT:
          ----                                     ----
               AG WELLS  =           0.0000                 AG WELLS  =           0.0000
      DIVERSION SEGMENTS =           0.0000        DIVERSION SEGMENTS =           0.0000
       IRRIGATION PONDS  =           0.0000         IRRIGATION PONDS  =           0.0000
           GW IRRIGATION =  1211695232.0000             GW IRRIGATION =           0.0000
           SW IRRIGATION =           0.0000             SW IRRIGATION =           0.0000
        SYSTEM LOSSES GW =           0.0000          SYSTEM LOSSES GW =           0.0000
        SYSTEM LOSSES SW =           0.0000          SYSTEM LOSSES SW =           0.0000

               TOTAL OUT =  1211695232.0000                 TOTAL OUT =           0.0000

                IN - OUT =           0.0000                  IN - OUT =           0.0000

     PERCENT DISCREPANCY =           0.00         PERCENT DISCREPANCY =           0.00



1
  VOLUMETRIC BUDGET FOR ENTIRE MODEL AT END OF TIME STEP   30, STRESS PERIOD  39
  ------------------------------------------------------------------------------

     CUMULATIVE VOLUMES      L**3       RATES FOR THIS TIME STEP      L**3/T
     ------------------                 ------------------------

           IN:                                      IN:
           ---                                      ---
             STORAGE     =  1686042240.0000               STORAGE     =           5.0734
       CONSTANT HEAD     =           0.0000         CONSTANT HEAD     =           0.0000
     HEAD DEP BOUNDS     =    28600632.0000       HEAD DEP BOUNDS     =           0.2876
      STREAM LEAKAGE     =  1224880384.0000        STREAM LEAKAGE     =          12.2176
        UZF RECHARGE     =       73223.9531          UZF RECHARGE     =           0.0000
               GW ET     =           0.0000                 GW ET     =           0.0000
     SURFACE LEAKAGE     =           0.0000       SURFACE LEAKAGE     =           0.0000
           AG WELLS      =           0.0000             AG WELLS      =           0.0000

                TOTAL IN =  2939596288.0000                  TOTAL IN =          17.5786

          OUT:                                     OUT:
          ----                                     ----
             STORAGE     =   659001344.0000               STORAGE     =           7.6921
       CONSTANT HEAD     =           0.0000         CONSTANT HEAD     =           0.0000
     HEAD DEP BOUNDS     =    29233132.0000       HEAD DEP BOUNDS     =           0.2889
      STREAM LEAKAGE     =  1022066624.0000        STREAM LEAKAGE     =           9.5983
        UZF RECHARGE     =           0.0000          UZF RECHARGE     =           0.0000
               GW ET     =    17603406.0000                 GW ET     =           0.0000
     SURFACE LEAKAGE     =           0.0000       SURFACE LEAKAGE     =           0.0000
           AG WELLS      =  1211695232.0000             AG WELLS      =           0.0000

               TOTAL OUT =  2939599872.0000                 TOTAL OUT =          17.5794

                IN - OUT =       -3584.0000                  IN - OUT =      -7.4577E-04

     PERCENT DISCREPANCY =          -0.00         PERCENT DISCREPANCY =          -0.00






         TIME SUMMARY AT END OF TIME STEP   30 IN STRESS PERIOD   39
                    SECONDS     MINUTES      HOURS       DAYS        YEARS
                    -----------------------------------------------------------
   TIME STEP LENGTH  87667.      1461.1      24.352      1.0147     2.77799E-03
 STRESS PERIOD TIME 2.63000E+06  43833.      730.56      30.440     8.33397E-02
         TOTAL TIME 1.00026E+08 1.66710E+06  27785.      1157.7      3.1696    
1
1
                            STRESS PERIOD NO.   40, LENGTH =   2630000.    
                            -----------------------------------------------

                              NUMBER OF TIME STEPS =    30

                               MULTIPLIER FOR DELT =     1.000

                            INITIAL TIME STEP SIZE =   87666.66    

 REUSING NON-PARAMETER GHB CELLS FROM LAST STRESS PERIOD

      2 GHB CELLS

 REUSING STREAM SEGMENT DATA FROM LAST STRESS PERIOD



            AREAL INFILTRATION RATE
 READING ON UNIT   19 WITH FORMAT: (FREE)              

            1           2           3           4           5           6           7           8           9          10
 ........................................................................................................................
   1   1.0000E-10  2.0000E-10   0.000       0.000       0.000       0.000       0.000       0.000       0.000       0.000    
   2   2.0000E-10  1.0000E-10  2.0000E-10   0.000       0.000      8.0000E-10  8.0000E-10  5.0000E-10   0.000       0.000    
   3    0.000      5.0000E-10  1.0000E-10  1.0000E-10  8.0000E-10  8.0000E-10  5.0000E-10  5.0000E-10   0.000       0.000    
   4   8.0000E-10  5.0000E-10  1.0000E-10  1.0000E-10  1.0000E-10  1.0000E-10  1.0000E-10  1.0000E-10  2.0000E-10   0.000    
   5   8.0000E-10  5.0000E-10  1.0000E-10  1.0000E-10  1.0000E-10  1.0000E-10  1.0000E-10  1.0000E-10  1.0000E-10  1.0000E-10
   6   8.0000E-10  5.0000E-10  5.0000E-10  2.0000E-10  2.0000E-10  1.0000E-10  1.0000E-10  1.0000E-10  1.0000E-10  5.0000E-10
   7   8.0000E-10  5.0000E-10  5.0000E-10  2.0000E-10  2.0000E-10  1.0000E-10  1.0000E-10  2.0000E-10  2.0000E-10   0.000    
   8    0.000      5.0000E-10  5.0000E-10  2.0000E-10  2.0000E-10  1.0000E-10  1.0000E-10  2.0000E-10  5.0000E-10   0.000    
   9    0.000      5.0000E-10  5.0000E-10  2.0000E-10  2.0000E-10  1.0000E-10  1.0000E-10  2.0000E-10  5.0000E-10   0.000    
  10    0.000      5.0000E-10  5.0000E-10  2.0000E-10  2.0000E-10  1.0000E-10  1.0000E-10  2.0000E-10  5.0000E-10  8.0000E-10
  11    0.000      1.0000E-10  1.0000E-10  1.0000E-10  1.0000E-10  1.0000E-10  1.0000E-10  2.0000E-10  5.0000E-10   0.000    
  12   1.0000E-10  1.0000E-10  1.0000E-10  1.0000E-10  1.0000E-10  1.0000E-10  1.0000E-10  1.0000E-10  2.0000E-10   0.000    
  13   1.0000E-10  1.0000E-10  2.0000E-10  2.0000E-10  2.0000E-10  2.0000E-10  2.0000E-10  1.0000E-10  1.0000E-10   0.000    
  14    0.000      2.0000E-10  5.0000E-10  5.0000E-10  5.0000E-10  5.0000E-10  5.0000E-10  2.0000E-10  1.0000E-10   0.000    
  15    0.000       0.000      8.0000E-10  8.0000E-10  8.0000E-10  8.0000E-10   0.000       0.000       0.000       0.000    

                  ET RATE =  5.000000E-10

 USING ET EXTINCTION DEPTH FROM PREVIOUS STRESS PERIOD. CURRENT PERIOD IS:      40

 USING EXTINCTION WATER CONTENT FROM PREVIOUS STRESS PERIOD. CURRENT PERIOD IS:      40

 USING AIR ENTRY PRESSURE FROM PREVIOUS STRESS PERIOD. CURRENT PERIOD IS:      40

 USING ROOT PRESSURE HEAD FROM PREVIOUS STRESS PERIOD. CURRENT PERIOD IS:      40

 USING ROOT ACTIVITY FROM PREVIOUS STRESS PERIOD. CURRENT PERIOD IS:      40

 PROCESSING AG STRESS PERIOD DATA

 READING AG STRESS PERIOD DATA

 READING IRRIGATION WELL

 NO IRRPOND OR REUSING IRRPOND DATA FROM LAST STRESS PERIOD

 END PROCESSING AG STRESS PERIOD DATA OPTIONS
 
 SOLVING FOR HEAD 
                                                   Max.-Head-Change                         Max.-Flux-Residual
  Residual-Control   Outer-Iter.   Inner-Iter.     Column Row Layer    Maximum-Head-Change  Column Row Layer    Maximum-Flux-Residual          L2-NORM 
          0                 1           2             4    7     1       0.1398545972E-01       4    7    1         0.7325101561E+00      0.1937346499E+01
          0                 2           2             4    7     1      -0.1360407491E-02       4    7    1        -0.7325125892E-01      0.1937339317E+00
          0                 3           1             4    7     1       0.9263867415E-04       4    7    1         0.5127588022E-02      0.1356129709E-01

    ------------------------------------------------
       NWT REQUIRED            3 OUTER ITERATIONS 
       AND A TOTAL OF          5 INNER ITERATIONS.
    ------------------------------------------------

 NO OUTPUT CONTROL FOR STRESS PERIOD   40   TIME STEP    1
 
 SOLVING FOR HEAD 
                                                   Max.-Head-Change                         Max.-Flux-Residual
  Residual-Control   Outer-Iter.   Inner-Iter.     Column Row Layer    Maximum-Head-Change  Column Row Layer    Maximum-Flux-Residual          L2-NORM 
          0                 1           2             4    7     1       0.1387426065E-01       4    7    1         0.7266560272E+00      0.1925904072E+01
          0                 2           2             4    7     1      -0.1349590783E-02       4    7    1        -0.7266584122E-01      0.1925897025E+00
          0                 3           1             4    7     1       0.9190209723E-04       4    7    1         0.5086608820E-02      0.1348120188E-01

    ------------------------------------------------
       NWT REQUIRED            3 OUTER ITERATIONS 
       AND A TOTAL OF          5 INNER ITERATIONS.
    ------------------------------------------------

 NO OUTPUT CONTROL FOR STRESS PERIOD   40   TIME STEP    2
 
 SOLVING FOR HEAD 
                                                   Max.-Head-Change                         Max.-Flux-Residual
  Residual-Control   Outer-Iter.   Inner-Iter.     Column Row Layer    Maximum-Head-Change  Column Row Layer    Maximum-Flux-Residual          L2-NORM 
          0                 1           2             4    7     1       0.1376459528E-01       4    7    1         0.7208831906E+00      0.1914593196E+01
          0                 2           2             4    7     1      -0.1338923263E-02       4    7    1        -0.7208855287E-01      0.1914585896E+00
          0                 3           1             4    7     1       0.9117567938E-04       4    7    1         0.5046198679E-02      0.1340203334E-01

    ------------------------------------------------
       NWT REQUIRED            3 OUTER ITERATIONS 
       AND A TOTAL OF          5 INNER ITERATIONS.
    ------------------------------------------------

 NO OUTPUT CONTROL FOR STRESS PERIOD   40   TIME STEP    3
 
 SOLVING FOR HEAD 
                                                   Max.-Head-Change                         Max.-Flux-Residual
  Residual-Control   Outer-Iter.   Inner-Iter.     Column Row Layer    Maximum-Head-Change  Column Row Layer    Maximum-Flux-Residual          L2-NORM 
          0                 1           2             4    7     1       0.1365629436E-01       4    7    1         0.7151825555E+00      0.1903407984E+01
          0                 2           2             4    7     1      -0.1328388469E-02       4    7    1        -0.7151848480E-01      0.1903400866E+00
          0                 3           1             4    7     1       0.9045829986E-04       4    7    1         0.5006293939E-02      0.1332373601E-01

    ------------------------------------------------
       NWT REQUIRED            3 OUTER ITERATIONS 
       AND A TOTAL OF          5 INNER ITERATIONS.
    ------------------------------------------------

 NO OUTPUT CONTROL FOR STRESS PERIOD   40   TIME STEP    4
 
 SOLVING FOR HEAD 
                                                   Max.-Head-Change                         Max.-Flux-Residual
  Residual-Control   Outer-Iter.   Inner-Iter.     Column Row Layer    Maximum-Head-Change  Column Row Layer    Maximum-Flux-Residual          L2-NORM 
          0                 1           2             4    7     1       0.1354933216E-01       4    7    1         0.7095526645E+00      0.1892346835E+01
          0                 2           2             4    7     1      -0.1317983897E-02       4    7    1        -0.7095549122E-01      0.1892339645E+00
          0                 3           1             4    7     1       0.8974978718E-04       4    7    1         0.4966884395E-02      0.1324629231E-01

    ------------------------------------------------
       NWT REQUIRED            3 OUTER ITERATIONS 
       AND A TOTAL OF          5 INNER ITERATIONS.
    ------------------------------------------------

 NO OUTPUT CONTROL FOR STRESS PERIOD   40   TIME STEP    5
 
 SOLVING FOR HEAD 
                                                   Max.-Head-Change                         Max.-Flux-Residual
  Residual-Control   Outer-Iter.   Inner-Iter.     Column Row Layer    Maximum-Head-Change  Column Row Layer    Maximum-Flux-Residual          L2-NORM 
          0                 1           2             4    7     1       0.1344382034E-01       4    7    1         0.7039995025E+00      0.1881414135E+01
          0                 2           2             4    7     1      -0.1307720409E-02       4    7    1        -0.7040017067E-01      0.1881407062E+00
          0                 3           1             4    7     1       0.8905088284E-04       4    7    1         0.4928012001E-02      0.1316977711E-01

    ------------------------------------------------
       NWT REQUIRED            3 OUTER ITERATIONS 
       AND A TOTAL OF          5 INNER ITERATIONS.
    ------------------------------------------------

 NO OUTPUT CONTROL FOR STRESS PERIOD   40   TIME STEP    6
 
 SOLVING FOR HEAD 
                                                   Max.-Head-Change                         Max.-Flux-Residual
  Residual-Control   Outer-Iter.   Inner-Iter.     Column Row Layer    Maximum-Head-Change  Column Row Layer    Maximum-Flux-Residual          L2-NORM 
          0                 1           2             4    7     1       0.1333958984E-01       4    7    1         0.6985142210E+00      0.1870601302E+01
          0                 2           2             4    7     1      -0.1297581561E-02       4    7    1        -0.6985163830E-01      0.1870594286E+00
          0                 3           1             4    7     1       0.8836046525E-04       4    7    1         0.4889614748E-02      0.1309408364E-01

    ------------------------------------------------
       NWT REQUIRED            3 OUTER ITERATIONS 
       AND A TOTAL OF          5 INNER ITERATIONS.
    ------------------------------------------------

 NO OUTPUT CONTROL FOR STRESS PERIOD   40   TIME STEP    7
 
 SOLVING FOR HEAD 
                                                   Max.-Head-Change                         Max.-Flux-Residual
  Residual-Control   Outer-Iter.   Inner-Iter.     Column Row Layer    Maximum-Head-Change  Column Row Layer    Maximum-Flux-Residual          L2-NORM 
          0                 1           2             4    7     1       0.1323675258E-01       4    7    1         0.6931026929E+00      0.1859907639E+01
          0                 2           2             4    7     1      -0.1287578239E-02       4    7    1        -0.6931048134E-01      0.1859900486E+00
          0                 3           1             4    7     1       0.8767927662E-04       4    7    1         0.4851733783E-02      0.1301921652E-01

    ------------------------------------------------
       NWT REQUIRED            3 OUTER ITERATIONS 
       AND A TOTAL OF          5 INNER ITERATIONS.
    ------------------------------------------------

 NO OUTPUT CONTROL FOR STRESS PERIOD   40   TIME STEP    8
 
 SOLVING FOR HEAD 
                                                   Max.-Head-Change                         Max.-Flux-Residual
  Residual-Control   Outer-Iter.   Inner-Iter.     Column Row Layer    Maximum-Head-Change  Column Row Layer    Maximum-Flux-Residual          L2-NORM 
          0                 1           2             4    7     1       0.1313514364E-01       4    7    1         0.6877560827E+00      0.1849330660E+01
          0                 2           2             4    7     1      -0.1277694399E-02       4    7    1        -0.6877581629E-01      0.1849323538E+00
          0                 3           1             4    7     1       0.8700622446E-04       4    7    1         0.4814307254E-02      0.1294519326E-01

    ------------------------------------------------
       NWT REQUIRED            3 OUTER ITERATIONS 
       AND A TOTAL OF          5 INNER ITERATIONS.
    ------------------------------------------------

 NO OUTPUT CONTROL FOR STRESS PERIOD   40   TIME STEP    9
 
 SOLVING FOR HEAD 
                                                   Max.-Head-Change                         Max.-Flux-Residual
  Residual-Control   Outer-Iter.   Inner-Iter.     Column Row Layer    Maximum-Head-Change  Column Row Layer    Maximum-Flux-Residual          L2-NORM 
          0                 1           2             4    7     1       0.1303487862E-01       4    7    1         0.6824804775E+00      0.1838877868E+01
          0                 2           2             4    7     1      -0.1267941289E-02       4    7    1        -0.6824825184E-01      0.1838870930E+00
          0                 3           1             4    7     1       0.8634207429E-04       4    7    1         0.4777377770E-02      0.1287203412E-01

    ------------------------------------------------
       NWT REQUIRED            3 OUTER ITERATIONS 
       AND A TOTAL OF          5 INNER ITERATIONS.
    ------------------------------------------------

 NO OUTPUT CONTROL FOR STRESS PERIOD   40   TIME STEP   10
 
 SOLVING FOR HEAD 
                                                   Max.-Head-Change                         Max.-Flux-Residual
  Residual-Control   Outer-Iter.   Inner-Iter.     Column Row Layer    Maximum-Head-Change  Column Row Layer    Maximum-Flux-Residual          L2-NORM 
          0                 1           2             4    7     1       0.1293578838E-01       4    7    1         0.6772672335E+00      0.1828528059E+01
          0                 2           2             4    7     1      -0.1258302453E-02       4    7    1        -0.6772692359E-01      0.1828521239E+00
          0                 3           1             4    7     1       0.8568570571E-04       4    7    1         0.4740884795E-02      0.1279957375E-01

    ------------------------------------------------
       NWT REQUIRED            3 OUTER ITERATIONS 
       AND A TOTAL OF          5 INNER ITERATIONS.
    ------------------------------------------------

 NO OUTPUT CONTROL FOR STRESS PERIOD   40   TIME STEP   11
 
 SOLVING FOR HEAD 
                                                   Max.-Head-Change                         Max.-Flux-Residual
  Residual-Control   Outer-Iter.   Inner-Iter.     Column Row Layer    Maximum-Head-Change  Column Row Layer    Maximum-Flux-Residual          L2-NORM 
          0                 1           2             4    7     1       0.1283799298E-01       4    7    1         0.6721222186E+00      0.1818301222E+01
          0                 2           2             4    7     1      -0.1248789572E-02       4    7    1        -0.6721241836E-01      0.1818294242E+00
          0                 3           1             4    7     1       0.8503791428E-04       4    7    1         0.4704869459E-02      0.1273682252E-01

    ------------------------------------------------
       NWT REQUIRED            3 OUTER ITERATIONS 
       AND A TOTAL OF          5 INNER ITERATIONS.
    ------------------------------------------------

 NO OUTPUT CONTROL FOR STRESS PERIOD   40   TIME STEP   12
 
 SOLVING FOR HEAD 
                                                   Max.-Head-Change                         Max.-Flux-Residual
  Residual-Control   Outer-Iter.   Inner-Iter.     Column Row Layer    Maximum-Head-Change  Column Row Layer    Maximum-Flux-Residual          L2-NORM 
          0                 1           2             4    7     1       0.1274132799E-01       4    7    1         0.6670370194E+00      0.1808179218E+01
          0                 2           2             4    7     1      -0.1239386649E-02       4    7    1        -0.6670389476E-01      0.1808172435E+00
          0                 3           1             4    7     1       0.8439761083E-04       4    7    1         0.4669272823E-02      0.1265714273E-01

    ------------------------------------------------
       NWT REQUIRED            3 OUTER ITERATIONS 
       AND A TOTAL OF          5 INNER ITERATIONS.
    ------------------------------------------------

 NO OUTPUT CONTROL FOR STRESS PERIOD   40   TIME STEP   13
 
 SOLVING FOR HEAD 
                                                   Max.-Head-Change                         Max.-Flux-Residual
  Residual-Control   Outer-Iter.   Inner-Iter.     Column Row Layer    Maximum-Head-Change  Column Row Layer    Maximum-Flux-Residual          L2-NORM 
          0                 1           2             4    7     1       0.1264591035E-01       4    7    1         0.6620177497E+00      0.1798169982E+01
          0                 2           2             4    7     1      -0.1230105062E-02       4    7    1        -0.6620196423E-01      0.1798163287E+00
          0                 3           1             4    7     1       0.8376556942E-04       4    7    1         0.4634137703E-02      0.1258706803E-01

    ------------------------------------------------
       NWT REQUIRED            3 OUTER ITERATIONS 
       AND A TOTAL OF          5 INNER ITERATIONS.
    ------------------------------------------------

 NO OUTPUT CONTROL FOR STRESS PERIOD   40   TIME STEP   14
 
 SOLVING FOR HEAD 
                                                   Max.-Head-Change                         Max.-Flux-Residual
  Residual-Control   Outer-Iter.   Inner-Iter.     Column Row Layer    Maximum-Head-Change  Column Row Layer    Maximum-Flux-Residual          L2-NORM 
          0                 1           2             4    7     1       0.1255157958E-01       4    7    1         0.6570558328E+00      0.1788267059E+01
          0                 2           2             4    7     1      -0.1220929198E-02       4    7    1        -0.6570576904E-01      0.1788260031E+00
          0                 3           1             4    7     1       0.8314072796E-04       4    7    1         0.4599404070E-02      0.1251768627E-01

    ------------------------------------------------
       NWT REQUIRED            3 OUTER ITERATIONS 
       AND A TOTAL OF          5 INNER ITERATIONS.
    ------------------------------------------------

 NO OUTPUT CONTROL FOR STRESS PERIOD   40   TIME STEP   15
 
 SOLVING FOR HEAD 
                                                   Max.-Head-Change                         Max.-Flux-Residual
  Residual-Control   Outer-Iter.   Inner-Iter.     Column Row Layer    Maximum-Head-Change  Column Row Layer    Maximum-Flux-Residual          L2-NORM 
          0                 1           2             4    7     1       0.1245844939E-01       4    7    1         0.6521575886E+00      0.1778469301E+01
          0                 2           2             4    7     1      -0.1211870119E-02       4    7    1        -0.6521594119E-01      0.1778462486E+00
          0                 3           1             4    7     1       0.8252383872E-04       4    7    1         0.4565116137E-02      0.1244915912E-01

    ------------------------------------------------
       NWT REQUIRED            3 OUTER ITERATIONS 
       AND A TOTAL OF          5 INNER ITERATIONS.
    ------------------------------------------------

 NO OUTPUT CONTROL FOR STRESS PERIOD   40   TIME STEP   16
 
 SOLVING FOR HEAD 
                                                   Max.-Head-Change                         Max.-Flux-Residual
  Residual-Control   Outer-Iter.   Inner-Iter.     Column Row Layer    Maximum-Head-Change  Column Row Layer    Maximum-Flux-Residual          L2-NORM 
          0                 1           2             4    7     1       0.1236649901E-01       4    7    1         0.6473215926E+00      0.1768781423E+01
          0                 2           2             4    7     1      -0.1202925805E-02       4    7    1        -0.6473233827E-01      0.1768774493E+00
          0                 3           1             4    7     1       0.8191476479E-04       4    7    1         0.4531263955E-02      0.1238134359E-01

    ------------------------------------------------
       NWT REQUIRED            3 OUTER ITERATIONS 
       AND A TOTAL OF          5 INNER ITERATIONS.
    ------------------------------------------------

 NO OUTPUT CONTROL FOR STRESS PERIOD   40   TIME STEP   17
 
 SOLVING FOR HEAD 
                                                   Max.-Head-Change                         Max.-Flux-Residual
  Residual-Control   Outer-Iter.   Inner-Iter.     Column Row Layer    Maximum-Head-Change  Column Row Layer    Maximum-Flux-Residual          L2-NORM 
          0                 1           2             4    7     1       0.1227556551E-01       4    7    1         0.6425394467E+00      0.1759188270E+01
          0                 2           2             4    7     1      -0.1194080407E-02       4    7    1        -0.6425412042E-01      0.1759181505E+00
          0                 3           1             4    7     1       0.8131242587E-04       4    7    1         0.4497788707E-02      0.1231420588E-01

    ------------------------------------------------
       NWT REQUIRED            3 OUTER ITERATIONS 
       AND A TOTAL OF          5 INNER ITERATIONS.
    ------------------------------------------------

 NO OUTPUT CONTROL FOR STRESS PERIOD   40   TIME STEP   18
 
 SOLVING FOR HEAD 
                                                   Max.-Head-Change                         Max.-Flux-Residual
  Residual-Control   Outer-Iter.   Inner-Iter.     Column Row Layer    Maximum-Head-Change  Column Row Layer    Maximum-Flux-Residual          L2-NORM 
          0                 1           2             4    7     1       0.1218576943E-01       4    7    1         0.6378173451E+00      0.1749704215E+01
          0                 2           2             4    7     1      -0.1185345650E-02       4    7    1        -0.6378190709E-01      0.1749697576E+00
          0                 3           1             4    7     1       0.8071762192E-04       4    7    1         0.4464733797E-02      0.1224781451E-01

    ------------------------------------------------
       NWT REQUIRED            3 OUTER ITERATIONS 
       AND A TOTAL OF          5 INNER ITERATIONS.
    ------------------------------------------------

 NO OUTPUT CONTROL FOR STRESS PERIOD   40   TIME STEP   19
 
 SOLVING FOR HEAD 
                                                   Max.-Head-Change                         Max.-Flux-Residual
  Residual-Control   Outer-Iter.   Inner-Iter.     Column Row Layer    Maximum-Head-Change  Column Row Layer    Maximum-Flux-Residual          L2-NORM 
          0                 1           2             4    7     1       0.1209709083E-01       4    7    1         0.6331542166E+00      0.1740323572E+01
          0                 2           2             4    7     1      -0.1176719594E-02       4    7    1        -0.6331559113E-01      0.1740316954E+00
          0                 3           1             4    7     1       0.8013022016E-04       4    7    1         0.4432091698E-02      0.1218214466E-01

    ------------------------------------------------
       NWT REQUIRED            3 OUTER ITERATIONS 
       AND A TOTAL OF          5 INNER ITERATIONS.
    ------------------------------------------------

 NO OUTPUT CONTROL FOR STRESS PERIOD   40   TIME STEP   20
 
 SOLVING FOR HEAD 
                                                   Max.-Head-Change                         Max.-Flux-Residual
  Residual-Control   Outer-Iter.   Inner-Iter.     Column Row Layer    Maximum-Head-Change  Column Row Layer    Maximum-Flux-Residual          L2-NORM 
          0                 1           2             4    7     1       0.1200937235E-01       4    7    1         0.6285417067E+00      0.1731036467E+01
          0                 2           2             4    7     1      -0.1168186932E-02       4    7    1        -0.6285433710E-01      0.1731029749E+00
          0                 3           1             4    7     1       0.7954917745E-04       4    7    1         0.4399803919E-02      0.1211714426E-01

    ------------------------------------------------
       NWT REQUIRED            3 OUTER ITERATIONS 
       AND A TOTAL OF          5 INNER ITERATIONS.
    ------------------------------------------------

 NO OUTPUT CONTROL FOR STRESS PERIOD   40   TIME STEP   21
 
 SOLVING FOR HEAD 
                                                   Max.-Head-Change                         Max.-Flux-Residual
  Residual-Control   Outer-Iter.   Inner-Iter.     Column Row Layer    Maximum-Head-Change  Column Row Layer    Maximum-Flux-Residual          L2-NORM 
          0                 1           2             4    7     1       0.1192273143E-01       4    7    1         0.6239862984E+00      0.1721849957E+01
          0                 2           2             4    7     1      -0.1159759089E-02       4    7    1        -0.6239879329E-01      0.1721843552E+00
          0                 3           1             4    7     1       0.7897527329E-04       4    7    1         0.4367915875E-02      0.1205284350E-01

    ------------------------------------------------
       NWT REQUIRED            3 OUTER ITERATIONS 
       AND A TOTAL OF          5 INNER ITERATIONS.
    ------------------------------------------------

 NO OUTPUT CONTROL FOR STRESS PERIOD   40   TIME STEP   22
 
 SOLVING FOR HEAD 
                                                   Max.-Head-Change                         Max.-Flux-Residual
  Residual-Control   Outer-Iter.   Inner-Iter.     Column Row Layer    Maximum-Head-Change  Column Row Layer    Maximum-Flux-Residual          L2-NORM 
          0                 1           2             4    7     1       0.1183714581E-01       4    7    1         0.6194867596E+00      0.1712753706E+01
          0                 2           2             4    7     1      -0.1151433899E-02       4    7    1        -0.6194883651E-01      0.1712747115E+00
          0                 3           1             4    7     1       0.7840835879E-04       4    7    1         0.4336418899E-02      0.1198915730E-01

    ------------------------------------------------
       NWT REQUIRED            3 OUTER ITERATIONS 
       AND A TOTAL OF          5 INNER ITERATIONS.
    ------------------------------------------------

 NO OUTPUT CONTROL FOR STRESS PERIOD   40   TIME STEP   23
 
 SOLVING FOR HEAD 
                                                   Max.-Head-Change                         Max.-Flux-Residual
  Residual-Control   Outer-Iter.   Inner-Iter.     Column Row Layer    Maximum-Head-Change  Column Row Layer    Maximum-Flux-Residual          L2-NORM 
          0                 1           2             4    7     1       0.1175246252E-01       4    7    1         0.6150346146E+00      0.1703755677E+01
          0                 2           2             4    7     1      -0.1143196482E-02       4    7    1        -0.6150361918E-01      0.1703749164E+00
          0                 3           1             4    7     1       0.7784742196E-04       4    7    1         0.4305253712E-02      0.1192616928E-01

    ------------------------------------------------
       NWT REQUIRED            3 OUTER ITERATIONS 
       AND A TOTAL OF          5 INNER ITERATIONS.
    ------------------------------------------------

 NO OUTPUT CONTROL FOR STRESS PERIOD   40   TIME STEP   24
 
 SOLVING FOR HEAD 
                                                   Max.-Head-Change                         Max.-Flux-Residual
  Residual-Control   Outer-Iter.   Inner-Iter.     Column Row Layer    Maximum-Head-Change  Column Row Layer    Maximum-Flux-Residual          L2-NORM 
          0                 1           2             4    7     1       0.1166880076E-01       4    7    1         0.6106365758E+00      0.1694848410E+01
          0                 2           2             4    7     1      -0.1135058432E-02       4    7    1        -0.6106381251E-01      0.1694841847E+00
          0                 3           1             4    7     1       0.7729325102E-04       4    7    1         0.4274467255E-02      0.1186382215E-01

    ------------------------------------------------
       NWT REQUIRED            3 OUTER ITERATIONS 
       AND A TOTAL OF          5 INNER ITERATIONS.
    ------------------------------------------------

 NO OUTPUT CONTROL FOR STRESS PERIOD   40   TIME STEP   25
 
 SOLVING FOR HEAD 
                                                   Max.-Head-Change                         Max.-Flux-Residual
  Residual-Control   Outer-Iter.   Inner-Iter.     Column Row Layer    Maximum-Head-Change  Column Row Layer    Maximum-Flux-Residual          L2-NORM 
          0                 1           2             4    7     1       0.1158614280E-01       4    7    1         0.6062915015E+00      0.1686036460E+01
          0                 2           2             4    7     1      -0.1127018027E-02       4    7    1        -0.6062930238E-01      0.1686029982E+00
          0                 3           1             4    7     1       0.7674572953E-04       4    7    1         0.4244051556E-02      0.1180214668E-01

    ------------------------------------------------
       NWT REQUIRED            3 OUTER ITERATIONS 
       AND A TOTAL OF          5 INNER ITERATIONS.
    ------------------------------------------------

 NO OUTPUT CONTROL FOR STRESS PERIOD   40   TIME STEP   26
 
 SOLVING FOR HEAD 
                                                   Max.-Head-Change                         Max.-Flux-Residual
  Residual-Control   Outer-Iter.   Inner-Iter.     Column Row Layer    Maximum-Head-Change  Column Row Layer    Maximum-Flux-Residual          L2-NORM 
          0                 1           2             4    7     1       0.1150433393E-01       4    7    1         0.6019911506E+00      0.1677313558E+01
          0                 2           2             4    7     1      -0.1119060215E-02       4    7    1        -0.6019926464E-01      0.1677307239E+00
          0                 3           1             4    7     1       0.7620383259E-04       4    7    1         0.4213948924E-02      0.1174109367E-01

    ------------------------------------------------
       NWT REQUIRED            3 OUTER ITERATIONS 
       AND A TOTAL OF          5 INNER ITERATIONS.
    ------------------------------------------------

 NO OUTPUT CONTROL FOR STRESS PERIOD   40   TIME STEP   27
 
 SOLVING FOR HEAD 
                                                   Max.-Head-Change                         Max.-Flux-Residual
  Residual-Control   Outer-Iter.   Inner-Iter.     Column Row Layer    Maximum-Head-Change  Column Row Layer    Maximum-Flux-Residual          L2-NORM 
          0                 1           2             4    7     1       0.1142363299E-01       4    7    1         0.5977494683E+00      0.1668681299E+01
          0                 2           2             4    7     1      -0.1111210176E-02       4    7    1        -0.5977509384E-01      0.1668675012E+00
          0                 3           1             4    7     1       0.7566927417E-04       4    7    1         0.4184256972E-02      0.1168066178E-01

    ------------------------------------------------
       NWT REQUIRED            3 OUTER ITERATIONS 
       AND A TOTAL OF          5 INNER ITERATIONS.
    ------------------------------------------------

 NO OUTPUT CONTROL FOR STRESS PERIOD   40   TIME STEP   28
 
 SOLVING FOR HEAD 
                                                   Max.-Head-Change                         Max.-Flux-Residual
  Residual-Control   Outer-Iter.   Inner-Iter.     Column Row Layer    Maximum-Head-Change  Column Row Layer    Maximum-Flux-Residual          L2-NORM 
          0                 1           2             4    7     1       0.1134374627E-01       4    7    1         0.5935505846E+00      0.1660138628E+01
          0                 2           2             4    7     1      -0.1103439338E-02       4    7    1        -0.5935520292E-01      0.1660132234E+00
          0                 3           1             4    7     1       0.7514010954E-04       4    7    1         0.4154864626E-02      0.1162085503E-01

    ------------------------------------------------
       NWT REQUIRED            3 OUTER ITERATIONS 
       AND A TOTAL OF          5 INNER ITERATIONS.
    ------------------------------------------------

 NO OUTPUT CONTROL FOR STRESS PERIOD   40   TIME STEP   29
 
 SOLVING FOR HEAD 
                                                   Max.-Head-Change                         Max.-Flux-Residual
  Residual-Control   Outer-Iter.   Inner-Iter.     Column Row Layer    Maximum-Head-Change  Column Row Layer    Maximum-Flux-Residual          L2-NORM 
          0                 1           2             4    7     1       0.1126479669E-01       4    7    1         0.5894012400E+00      0.1651683112E+01
          0                 2           2             4    7     1      -0.1095759660E-02       4    7    1        -0.5894026597E-01      0.1651676901E+00
          0                 3           1             4    7     1       0.7461715214E-04       4    7    1         0.4125819053E-02      0.1156169097E-01

    ------------------------------------------------
       NWT REQUIRED            3 OUTER ITERATIONS 
       AND A TOTAL OF          5 INNER ITERATIONS.
    ------------------------------------------------

 NO OUTPUT CONTROL FOR STRESS PERIOD   40   TIME STEP   30



 STREAM LISTING     PERIOD     40   STEP       30

 LAYER ROW COL. STREAM  RCH.  FLOW INTO     FLOW TO   FLOW OUT OF   OVRLND.     DIRECT     STREAM       STREAM     STREAM     STREAM   STREAMBED  STREAMBED
                SEG.NO.  NO.  STRM. RCH.    AQUIFER    STRM. RCH.    RUNOFF     PRECIP       ET          HEAD       DEPTH      WIDTH   CONDCTNC.   GRADIENT

   1    1    1     1     1    1.9000E+01  2.1427E-01   1.8786E+01  0.000E+00  0.000E+00  0.000E+00  1.09413E+03  1.082E+00  1.166E+01  5.249E-02  1.361E+00
   1    2    2     1     2    1.8786E+01  3.3054E-01   1.8455E+01  0.000E+00  0.000E+00  0.000E+00  1.08914E+03  1.077E+00  1.158E+01  8.107E-02  1.359E+00
   1    3    3     1     3    1.8455E+01  2.8064E-01   1.8175E+01  0.000E+00  0.000E+00  0.000E+00  1.08349E+03  1.072E+00  1.149E+01  6.892E-02  1.357E+00
   1    3    4     1     4    1.8175E+01  2.5740E-01   1.7917E+01  0.000E+00  0.000E+00  0.000E+00  1.07848E+03  1.068E+00  1.140E+01  6.328E-02  1.356E+00
   1    4    5     2     1    1.5917E+01  3.0542E-01   1.5612E+01  0.000E+00  0.000E+00  0.000E+00  1.07285E+03  9.157E-01  1.200E+01  7.800E-02  1.305E+00
   1    5    6     2     2    1.5612E+01  2.3438E-01   1.5377E+01  0.000E+00  0.000E+00  0.000E+00  1.06742E+03  9.063E-01  1.200E+01  6.000E-02  1.302E+00
   1    6    6     2     3    1.5377E+01  2.3388E-01   1.5143E+01  0.000E+00  0.000E+00  0.000E+00  1.06269E+03  8.980E-01  1.200E+01  6.000E-02  1.299E+00
   1    7    6     2     4    1.5143E+01  2.3338E-01   1.4910E+01  0.000E+00  0.000E+00  0.000E+00  1.05797E+03  8.897E-01  1.200E+01  6.000E-02  1.297E+00
   1    8    6     2     5    1.4910E+01  2.3289E-01   1.4677E+01  0.000E+00  0.000E+00  0.000E+00  1.05324E+03  8.814E-01  1.200E+01  6.000E-02  1.294E+00
   1    3    5     3     1    2.0000E+00  2.8252E-01   1.7175E+00  0.000E+00  0.000E+00  0.000E+00  1.07555E+03  1.909E+00  9.636E+00  7.227E-02  1.955E+00
   1    3    6     3     2    1.7175E+00  2.4905E-01   1.4684E+00  0.000E+00  0.000E+00  0.000E+00  1.07264E+03  1.727E+00  8.909E+00  6.682E-02  1.864E+00
   1    3    7     3     3    1.4684E+00  1.9718E-01   1.2712E+00  0.000E+00  0.000E+00  0.000E+00  1.06987E+03  1.555E+00  8.218E+00  5.547E-02  1.777E+00
   1    4    8     3     4    1.2712E+00  2.2567E-01   1.0456E+00  0.000E+00  0.000E+00  0.000E+00  1.06682E+03  1.364E+00  7.455E+00  6.709E-02  1.682E+00
   1    5    8     3     5    1.0456E+00  1.5790E-01   8.8768E-01  0.000E+00  0.000E+00  0.000E+00  1.06362E+03  1.164E+00  6.655E+00  4.991E-02  1.582E+00
   1    6    8     3     6    8.8768E-01  5.5980E-02   8.3170E-01  0.000E+00  0.000E+00  0.000E+00  1.06158E+03  1.036E+00  6.145E+00  1.844E-02  1.518E+00
   1    5   10     4     1    1.0000E+01  9.0919E-02   9.9091E+00  0.000E+00  0.000E+00  0.000E+00  1.07836E+03  6.368E-01  1.000E+01  2.500E-02  1.212E+00
   1    5    9     4     2    9.9091E+00  1.8158E-01   9.7275E+00  0.000E+00  0.000E+00  0.000E+00  1.07154E+03  6.315E-01  1.000E+01  5.000E-02  1.211E+00
   1    6    8     4     3    9.7275E+00  1.2689E-01   9.6006E+00  0.000E+00  0.000E+00  0.000E+00  1.06381E+03  6.256E-01  1.000E+01  3.500E-02  1.209E+00
   1    6    8     5     1    1.0432E+01  2.2686E-01   1.0205E+01  0.000E+00  0.000E+00  0.000E+00  1.05868E+03  6.790E-01  1.542E+01  6.166E-02  1.226E+00
   1    7    7     5     2    1.0205E+01  2.7894E-01   9.9265E+00  0.000E+00  0.000E+00  0.000E+00  1.05417E+03  6.732E-01  1.519E+01  7.594E-02  1.224E+00
   1    8    7     5     3    9.9265E+00  1.9221E-01   9.7343E+00  0.000E+00  0.000E+00  0.000E+00  1.04992E+03  6.676E-01  1.497E+01  5.241E-02  1.223E+00
   1    8    6     5     4    9.7343E+00  1.3577E-01   9.5985E+00  0.000E+00  0.000E+00  0.000E+00  1.04691E+03  6.637E-01  1.482E+01  3.706E-02  1.221E+00
   1    9    6     6     1    2.4276E+01  2.5176E-01   2.4024E+01  0.000E+00  0.000E+00  0.000E+00  1.04392E+03  1.196E+00  1.200E+01  6.000E-02  1.399E+00
   1   10    7     6     2    2.4024E+01  2.5131E-01   2.3773E+01  0.000E+00  0.000E+00  0.000E+00  1.03937E+03  1.188E+00  1.200E+01  6.000E-02  1.396E+00
   1   11    7     6     3    2.3773E+01  2.5086E-01   2.3522E+01  0.000E+00  0.000E+00  0.000E+00  1.03482E+03  1.181E+00  1.200E+01  6.000E-02  1.394E+00
   1   12    7     6     4    2.3522E+01  2.5041E-01   2.3271E+01  0.000E+00  0.000E+00  0.000E+00  1.03026E+03  1.173E+00  1.200E+01  6.000E-02  1.391E+00
   1   13    7     6     5    2.3271E+01  1.0110E-02   2.3261E+01  0.000E+00  0.000E+00  0.000E+00  1.02708E+03  1.170E+00  1.200E+01  2.400E-02  1.404E-01
   1   14    9     7     1    1.5000E+02  1.3655E+00   1.4863E+02  0.000E+00  0.000E+00  0.000E+00  1.03987E+03  2.288E+00  5.529E+01  5.593E-01  8.138E-01
   1   13    8     7     2    1.4863E+02  1.9553E+00   1.4668E+02  0.000E+00  0.000E+00  0.000E+00  1.03478E+03  2.279E+00  5.525E+01  6.147E-01  1.060E+00
   1   13    7     7     3    1.4668E+02  1.6925E+00   1.4499E+02  0.000E+00  0.000E+00  0.000E+00  1.02969E+03  2.269E+00  5.521E+01  5.584E-01  1.010E+00
   1   13    6     8     1    1.6825E+02  1.1318E+00   1.6712E+02  0.000E+00  0.000E+00  0.000E+00  1.02481E+03  2.937E+00  4.259E+01  4.340E-01  8.693E-01
   1   13    5     8     2    1.6712E+02  3.7318E-01   1.6674E+02  0.000E+00  0.000E+00  0.000E+00  1.01856E+03  2.932E+00  4.252E+01  4.332E-01  2.871E-01
   1   13    4     8     3    1.6674E+02 -1.7682E+00   1.6851E+02  0.000E+00  0.000E+00  0.000E+00  1.01231E+03  2.937E+00  4.258E+01  4.339E+00 -1.358E-01
   1   13    3     8     4    1.6851E+02 -3.3257E+00   1.7184E+02  0.000E+00  0.000E+00  0.000E+00  1.00608E+03  2.953E+00  4.282E+01  4.364E+00 -2.540E-01
   1   13    2     8     5    1.7184E+02 -2.4997E+00   1.7434E+02  0.000E+00  0.000E+00  0.000E+00  9.99847E+02  2.972E+00  4.310E+01  4.392E+00 -1.897E-01
   1   13    1     8     6    1.7434E+02 -1.9629E+00   1.7630E+02  0.000E+00  0.000E+00  0.000E+00  9.94862E+02  2.987E+00  4.330E+01  2.648E+00 -2.471E-01





UNSATURATED ZONE PACKAGE VOLUMETRIC BUDGET FOR  TIME STEP    30 STRESS PERIOD   40
  ------------------------------------------------------------------------------



     CUMULATIVE VOLUMES      L**3       RATES FOR THIS TIME STEP      L**3/T
     ------------------                 ------------------------

           IN:                                      IN:
           ---                                      ---
        INFILTRATION =  1298701175.5794          INFILTRATION =           0.8475

          OUT:                                     OUT:
          ----                                     ----
              UZF ET =  1296580171.6396                UZF ET =           0.7500
        UZF RECHARGE =       73224.0000          UZF RECHARGE =       0.0000E+00

            IN - OUT =     2047779.9398              IN - OUT =       9.7500E-02

          STORAGE:                                 STORAGE:
          --------                                 --------
      STORAGE CHANGE =     2047771.5710        STORAGE CHANGE =       9.7500E-02

 PERCENT DISCREPANCY IS DIFFERENCE BETWEEN IN-OUT MINUS CHANGE IN STORAGE
 DIVIDED BY THE AVERAGE OF IN AND OUT TIMES 100

 PERCENT DISCREPANCY =           0.00     PERCENT DISCREPANCY =           0.00






1
  VOLUMETRIC BUDGET FOR AGRICULTURAL FIELDS AT  END OF TIME STEP   30, STRESS PERIOD  40
  ------------------------------------------------------------------------------

     CUMULATIVE VOLUMES      L**3       RATES FOR THIS TIME STEP      L**3/T
     ------------------                 ------------------------

           IN:                                      IN:
           ---                                      ---
               AG WELLS  =  1211695232.0000                 AG WELLS  =           0.0000
      DIVERSION SEGMENTS =           0.0000        DIVERSION SEGMENTS =           0.0000
       IRRIGATION PONDS  =           0.0000         IRRIGATION PONDS  =           0.0000
           GW IRRIGATION =           0.0000             GW IRRIGATION =           0.0000
           SW IRRIGATION =           0.0000             SW IRRIGATION =           0.0000
        SYSTEM LOSSES GW =           0.0000          SYSTEM LOSSES GW =           0.0000
        SYSTEM LOSSES SW =           0.0000          SYSTEM LOSSES SW =           0.0000

                TOTAL IN =  1211695232.0000                  TOTAL IN =           0.0000

          OUT:                                     OUT:
          ----                                     ----
               AG WELLS  =           0.0000                 AG WELLS  =           0.0000
      DIVERSION SEGMENTS =           0.0000        DIVERSION SEGMENTS =           0.0000
       IRRIGATION PONDS  =           0.0000         IRRIGATION PONDS  =           0.0000
           GW IRRIGATION =  1211695232.0000             GW IRRIGATION =           0.0000
           SW IRRIGATION =           0.0000             SW IRRIGATION =           0.0000
        SYSTEM LOSSES GW =           0.0000          SYSTEM LOSSES GW =           0.0000
        SYSTEM LOSSES SW =           0.0000          SYSTEM LOSSES SW =           0.0000

               TOTAL OUT =  1211695232.0000                 TOTAL OUT =           0.0000

                IN - OUT =           0.0000                  IN - OUT =           0.0000

     PERCENT DISCREPANCY =           0.00         PERCENT DISCREPANCY =           0.00



1
  VOLUMETRIC BUDGET FOR ENTIRE MODEL AT END OF TIME STEP   30, STRESS PERIOD  40
  ------------------------------------------------------------------------------

     CUMULATIVE VOLUMES      L**3       RATES FOR THIS TIME STEP      L**3/T
     ------------------                 ------------------------

           IN:                                      IN:
           ---                                      ---
             STORAGE     =  1698216832.0000               STORAGE     =           4.2512
       CONSTANT HEAD     =           0.0000         CONSTANT HEAD     =           0.0000
     HEAD DEP BOUNDS     =    29357310.0000       HEAD DEP BOUNDS     =           0.2878
      STREAM LEAKAGE     =  1257067136.0000        STREAM LEAKAGE     =          12.2569
        UZF RECHARGE     =       73223.9531          UZF RECHARGE     =           0.0000
               GW ET     =           0.0000                 GW ET     =           0.0000
     SURFACE LEAKAGE     =           0.0000       SURFACE LEAKAGE     =           0.0000
           AG WELLS      =           0.0000             AG WELLS      =           0.0000

                TOTAL IN =  2984714496.0000                  TOTAL IN =          16.7959

          OUT:                                     OUT:
          ----                                     ----
             STORAGE     =   678176768.0000               STORAGE     =           6.9513
       CONSTANT HEAD     =           0.0000         CONSTANT HEAD     =           0.0000
     HEAD DEP BOUNDS     =    29993002.0000       HEAD DEP BOUNDS     =           0.2889
      STREAM LEAKAGE     =  1047250880.0000        STREAM LEAKAGE     =           9.5565
        UZF RECHARGE     =           0.0000          UZF RECHARGE     =           0.0000
               GW ET     =    17603406.0000                 GW ET     =           0.0000
     SURFACE LEAKAGE     =           0.0000       SURFACE LEAKAGE     =           0.0000
           AG WELLS      =  1211695232.0000             AG WELLS      =           0.0000

               TOTAL OUT =  2984719360.0000                 TOTAL OUT =          16.7966

                IN - OUT =       -4864.0000                  IN - OUT =      -7.6866E-04

     PERCENT DISCREPANCY =          -0.00         PERCENT DISCREPANCY =          -0.00






         TIME SUMMARY AT END OF TIME STEP   30 IN STRESS PERIOD   40
                    SECONDS     MINUTES      HOURS       DAYS        YEARS
                    -----------------------------------------------------------
   TIME STEP LENGTH  87667.      1461.1      24.352      1.0147     2.77799E-03
 STRESS PERIOD TIME 2.63000E+06  43833.      730.56      30.440     8.33397E-02
         TOTAL TIME 1.02656E+08 1.71093E+06  28515.      1188.1      3.2530    
1
1
                            STRESS PERIOD NO.   41, LENGTH =   2630000.    
                            -----------------------------------------------

                              NUMBER OF TIME STEPS =    30

                               MULTIPLIER FOR DELT =     1.000

                            INITIAL TIME STEP SIZE =   87666.66    

 REUSING NON-PARAMETER GHB CELLS FROM LAST STRESS PERIOD

      2 GHB CELLS

 REUSING STREAM SEGMENT DATA FROM LAST STRESS PERIOD



            AREAL INFILTRATION RATE
 READING ON UNIT   19 WITH FORMAT: (FREE)              

            1           2           3           4           5           6           7           8           9          10
 ........................................................................................................................
   1   1.0000E-10  2.0000E-10   0.000       0.000       0.000       0.000       0.000       0.000       0.000       0.000    
   2   2.0000E-10  1.0000E-10  2.0000E-10   0.000       0.000      8.0000E-10  8.0000E-10  5.0000E-10   0.000       0.000    
   3    0.000      5.0000E-10  1.0000E-10  1.0000E-10  8.0000E-10  8.0000E-10  5.0000E-10  5.0000E-10   0.000       0.000    
   4   8.0000E-10  5.0000E-10  1.0000E-10  1.0000E-10  1.0000E-10  1.0000E-10  1.0000E-10  1.0000E-10  2.0000E-10   0.000    
   5   8.0000E-10  5.0000E-10  1.0000E-10  1.0000E-10  1.0000E-10  1.0000E-10  1.0000E-10  1.0000E-10  1.0000E-10  1.0000E-10
   6   8.0000E-10  5.0000E-10  5.0000E-10  2.0000E-10  2.0000E-10  1.0000E-10  1.0000E-10  1.0000E-10  1.0000E-10  5.0000E-10
   7   8.0000E-10  5.0000E-10  5.0000E-10  2.0000E-10  2.0000E-10  1.0000E-10  1.0000E-10  2.0000E-10  2.0000E-10   0.000    
   8    0.000      5.0000E-10  5.0000E-10  2.0000E-10  2.0000E-10  1.0000E-10  1.0000E-10  2.0000E-10  5.0000E-10   0.000    
   9    0.000      5.0000E-10  5.0000E-10  2.0000E-10  2.0000E-10  1.0000E-10  1.0000E-10  2.0000E-10  5.0000E-10   0.000    
  10    0.000      5.0000E-10  5.0000E-10  2.0000E-10  2.0000E-10  1.0000E-10  1.0000E-10  2.0000E-10  5.0000E-10  8.0000E-10
  11    0.000      1.0000E-10  1.0000E-10  1.0000E-10  1.0000E-10  1.0000E-10  1.0000E-10  2.0000E-10  5.0000E-10   0.000    
  12   1.0000E-10  1.0000E-10  1.0000E-10  1.0000E-10  1.0000E-10  1.0000E-10  1.0000E-10  1.0000E-10  2.0000E-10   0.000    
  13   1.0000E-10  1.0000E-10  2.0000E-10  2.0000E-10  2.0000E-10  2.0000E-10  2.0000E-10  1.0000E-10  1.0000E-10   0.000    
  14    0.000      2.0000E-10  5.0000E-10  5.0000E-10  5.0000E-10  5.0000E-10  5.0000E-10  2.0000E-10  1.0000E-10   0.000    
  15    0.000       0.000      8.0000E-10  8.0000E-10  8.0000E-10  8.0000E-10   0.000       0.000       0.000       0.000    

                  ET RATE =  2.500000E-08

 USING ET EXTINCTION DEPTH FROM PREVIOUS STRESS PERIOD. CURRENT PERIOD IS:      41

 USING EXTINCTION WATER CONTENT FROM PREVIOUS STRESS PERIOD. CURRENT PERIOD IS:      41

 USING AIR ENTRY PRESSURE FROM PREVIOUS STRESS PERIOD. CURRENT PERIOD IS:      41

 USING ROOT PRESSURE HEAD FROM PREVIOUS STRESS PERIOD. CURRENT PERIOD IS:      41

 USING ROOT ACTIVITY FROM PREVIOUS STRESS PERIOD. CURRENT PERIOD IS:      41

 PROCESSING AG STRESS PERIOD DATA

 READING AG STRESS PERIOD DATA

 READING IRRIGATION WELL

 NO IRRPOND OR REUSING IRRPOND DATA FROM LAST STRESS PERIOD

 END PROCESSING AG STRESS PERIOD DATA OPTIONS
 
 SOLVING FOR HEAD 
                                                   Max.-Head-Change                         Max.-Flux-Residual
  Residual-Control   Outer-Iter.   Inner-Iter.     Column Row Layer    Maximum-Head-Change  Column Row Layer    Maximum-Flux-Residual          L2-NORM 
          0                 1           2             3    7     1       0.9361758825E-02       4    9    1         0.3248534971E+00      0.1152650862E+01
          0                 2           2             3    7     1      -0.9106446635E-03       4    9    1        -0.3248539644E-01      0.1152642288E+00
          0                 3           1             3    7     1       0.6201159429E-04       4    9    1         0.2273978286E-02      0.8068418364E-02

    ------------------------------------------------
       NWT REQUIRED            3 OUTER ITERATIONS 
       AND A TOTAL OF          5 INNER ITERATIONS.
    ------------------------------------------------

 NO OUTPUT CONTROL FOR STRESS PERIOD   41   TIME STEP    1
 
 SOLVING FOR HEAD 
                                                   Max.-Head-Change                         Max.-Flux-Residual
  Residual-Control   Outer-Iter.   Inner-Iter.     Column Row Layer    Maximum-Head-Change  Column Row Layer    Maximum-Flux-Residual          L2-NORM 
          0                 1           2             4    7     1       0.1117856922E-01       4    7    1         0.5845743807E+00      0.1643798700E+01
          0                 2           2             4    7     1      -0.1262947504E-01       4    7    1        -0.6782848937E+00      0.1645278311E+01
          0                 3           2             4    7     1       0.8600178658E-03       4    7    1         0.4747979999E-01      0.1151690896E+00
          0                 4           1             4    7     1      -0.3422092800E-04       4    7    1        -0.1941927286E-02      0.4710505158E-02

    ------------------------------------------------
       NWT REQUIRED            4 OUTER ITERATIONS 
       AND A TOTAL OF          7 INNER ITERATIONS.
    ------------------------------------------------

 NO OUTPUT CONTROL FOR STRESS PERIOD   41   TIME STEP    2
 
 SOLVING FOR HEAD 
                                                   Max.-Head-Change                         Max.-Flux-Residual
  Residual-Control   Outer-Iter.   Inner-Iter.     Column Row Layer    Maximum-Head-Change  Column Row Layer    Maximum-Flux-Residual          L2-NORM 
          0                 1           2             4    7     1       0.1117522247E-01       4    7    1         0.5841261045E+00      0.1644892476E+01
          0                 2           2             4    7     1      -0.1262920183E-01       4    7    1        -0.6782428686E+00      0.1647107367E+01
          0                 3           2             4    7     1       0.8599992732E-03       4    7    1         0.4747685905E-01      0.1152971200E+00
          0                 4           1             4    7     1      -0.3422018819E-04       4    7    1        -0.1941806994E-02      0.4715667693E-02

    ------------------------------------------------
       NWT REQUIRED            4 OUTER ITERATIONS 
       AND A TOTAL OF          7 INNER ITERATIONS.
    ------------------------------------------------

 NO OUTPUT CONTROL FOR STRESS PERIOD   41   TIME STEP    3
 
 SOLVING FOR HEAD 
                                                   Max.-Head-Change                         Max.-Flux-Residual
  Residual-Control   Outer-Iter.   Inner-Iter.     Column Row Layer    Maximum-Head-Change  Column Row Layer    Maximum-Flux-Residual          L2-NORM 
          0                 1           2             4    7     1       0.1117674839E-01       4    7    1         0.5839525821E+00      0.1646563717E+01
          0                 2           2             4    7     1      -0.1262940132E-01       4    7    1        -0.6782282451E+00      0.1648861182E+01
          0                 3           2             4    7     1       0.8600128692E-03       4    7    1         0.4747583616E-01      0.1154198877E+00
          0                 4           1             4    7     1      -0.3422072895E-04       4    7    1        -0.1941765145E-02      0.4720681621E-02

    ------------------------------------------------
       NWT REQUIRED            4 OUTER ITERATIONS 
       AND A TOTAL OF          7 INNER ITERATIONS.
    ------------------------------------------------

 NO OUTPUT CONTROL FOR STRESS PERIOD   41   TIME STEP    4
 
 SOLVING FOR HEAD 
                                                   Max.-Head-Change                         Max.-Flux-Residual
  Residual-Control   Outer-Iter.   Inner-Iter.     Column Row Layer    Maximum-Head-Change  Column Row Layer    Maximum-Flux-Residual          L2-NORM 
          0                 1           2             4    7     1       0.1118273638E-01       4    7    1         0.5840317197E+00      0.1648710700E+01
          0                 2           2             4    7     1      -0.1263003288E-01       4    7    1        -0.6782387762E+00      0.1650541640E+01
          0                 3           2             4    7     1       0.8600558861E-03       4    7    1         0.4747657401E-01      0.1155375173E+00
          0                 4           1             4    7     1      -0.3422244078E-04       4    7    1        -0.1941795346E-02      0.4725492771E-02

    ------------------------------------------------
       NWT REQUIRED            4 OUTER ITERATIONS 
       AND A TOTAL OF          7 INNER ITERATIONS.
    ------------------------------------------------

 NO OUTPUT CONTROL FOR STRESS PERIOD   41   TIME STEP    5
 
 SOLVING FOR HEAD 
                                                   Max.-Head-Change                         Max.-Flux-Residual
  Residual-Control   Outer-Iter.   Inner-Iter.     Column Row Layer    Maximum-Head-Change  Column Row Layer    Maximum-Flux-Residual          L2-NORM 
          0                 1           2             4    7     1       0.1119266709E-01       4    7    1         0.5843348757E+00      0.1651243059E+01
          0                 2           2             4    7     1      -0.1263104915E-01       4    7    1        -0.6782717691E+00      0.1652152394E+01
          0                 3           2             4    7     1       0.8601250992E-03       4    7    1         0.4747888413E-01      0.1156502709E+00
          0                 4           1             4    7     1      -0.3422519428E-04       4    7    1        -0.1941889788E-02      0.4730105067E-02

    ------------------------------------------------
       NWT REQUIRED            4 OUTER ITERATIONS 
       AND A TOTAL OF          7 INNER ITERATIONS.
    ------------------------------------------------

 NO OUTPUT CONTROL FOR STRESS PERIOD   41   TIME STEP    6
 
 SOLVING FOR HEAD 
                                                   Max.-Head-Change                         Max.-Flux-Residual
  Residual-Control   Outer-Iter.   Inner-Iter.     Column Row Layer    Maximum-Head-Change  Column Row Layer    Maximum-Flux-Residual          L2-NORM 
          0                 1           2             4    7     1       0.1120645588E-01       4    7    1         0.5848571011E+00      0.1654100797E+01
          0                 2           2             4    7     1      -0.1263243858E-01       4    7    1        -0.6783265502E+00      0.1653697288E+01
          0                 3           2             4    7     1       0.8602197225E-03       4    7    1         0.4748271936E-01      0.1157584120E+00
          0                 4           1             4    7     1      -0.3422895965E-04       4    7    1        -0.1942046666E-02      0.4734529922E-02

    ------------------------------------------------
       NWT REQUIRED            4 OUTER ITERATIONS 
       AND A TOTAL OF          7 INNER ITERATIONS.
    ------------------------------------------------

 NO OUTPUT CONTROL FOR STRESS PERIOD   41   TIME STEP    7
 
 SOLVING FOR HEAD 
                                                   Max.-Head-Change                         Max.-Flux-Residual
  Residual-Control   Outer-Iter.   Inner-Iter.     Column Row Layer    Maximum-Head-Change  Column Row Layer    Maximum-Flux-Residual          L2-NORM 
          0                 1           2             4    7     1       0.1122362098E-01       4    7    1         0.5855720436E+00      0.1657212154E+01
          0                 2           2             4    7     1      -0.1263415664E-01       4    7    1        -0.6784006107E+00      0.1655178440E+01
          0                 3           2             4    7     1       0.8603367235E-03       4    7    1         0.4748790410E-01      0.1158620916E+00
          0                 4           1             4    7     1      -0.3423361541E-04       4    7    1        -0.1942258712E-02      0.4738768276E-02

    ------------------------------------------------
       NWT REQUIRED            4 OUTER ITERATIONS 
       AND A TOTAL OF          7 INNER ITERATIONS.
    ------------------------------------------------

 NO OUTPUT CONTROL FOR STRESS PERIOD   41   TIME STEP    8
 
 SOLVING FOR HEAD 
                                                   Max.-Head-Change                         Max.-Flux-Residual
  Residual-Control   Outer-Iter.   Inner-Iter.     Column Row Layer    Maximum-Head-Change  Column Row Layer    Maximum-Flux-Residual          L2-NORM 
          0                 1           2             4    7     1       0.1124397442E-01       4    7    1         0.5864693498E+00      0.1660524064E+01
          0                 2           2             4    7     1      -0.1263618366E-01       4    7    1        -0.6784928410E+00      0.1656598581E+01
          0                 3           2             4    7     1       0.8604747633E-03       4    7    1         0.4749436067E-01      0.1159615026E+00
          0                 4           1             4    7     1      -0.3423910826E-04       4    7    1        -0.1942522805E-02      0.4742834034E-02

    ------------------------------------------------
       NWT REQUIRED            4 OUTER ITERATIONS 
       AND A TOTAL OF          7 INNER ITERATIONS.
    ------------------------------------------------

 NO OUTPUT CONTROL FOR STRESS PERIOD   41   TIME STEP    9
 
 SOLVING FOR HEAD 
                                                   Max.-Head-Change                         Max.-Flux-Residual
  Residual-Control   Outer-Iter.   Inner-Iter.     Column Row Layer    Maximum-Head-Change  Column Row Layer    Maximum-Flux-Residual          L2-NORM 
          0                 1           2             4    7     1       0.1126708334E-01       4    7    1         0.5875246494E+00      0.1663994890E+01
          0                 2           2             4    7     1      -0.1263847767E-01       4    7    1        -0.6786008115E+00      0.1657961197E+01
          0                 3           2             4    7     1       0.8606309825E-03       4    7    1         0.4750191900E-01      0.1160568832E+00
          0                 4           1             4    7     1      -0.3424532400E-04       4    7    1        -0.1942831927E-02      0.4746734405E-02

    ------------------------------------------------
       NWT REQUIRED            4 OUTER ITERATIONS 
       AND A TOTAL OF          7 INNER ITERATIONS.
    ------------------------------------------------

 NO OUTPUT CONTROL FOR STRESS PERIOD   41   TIME STEP   10
 
 SOLVING FOR HEAD 
                                                   Max.-Head-Change                         Max.-Flux-Residual
  Residual-Control   Outer-Iter.   Inner-Iter.     Column Row Layer    Maximum-Head-Change  Column Row Layer    Maximum-Flux-Residual          L2-NORM 
          0                 1           2             4    7     1       0.1129266283E-01       4    7    1         0.5887228075E+00      0.1667570844E+01
          0                 2           2             4    7     1      -0.1264101081E-01       4    7    1        -0.6787230012E+00      0.1659267428E+01
          0                 3           2             4    7     1       0.8608034848E-03       4    7    1         0.4751047263E-01      0.1161483190E+00
          0                 4           1             4    7     1      -0.3425218791E-04       4    7    1        -0.1943181757E-02      0.4750473812E-02

    ------------------------------------------------
       NWT REQUIRED            4 OUTER ITERATIONS 
       AND A TOTAL OF          7 INNER ITERATIONS.
    ------------------------------------------------

 NO OUTPUT CONTROL FOR STRESS PERIOD   41   TIME STEP   11
 
 SOLVING FOR HEAD 
                                                   Max.-Head-Change                         Max.-Flux-Residual
  Residual-Control   Outer-Iter.   Inner-Iter.     Column Row Layer    Maximum-Head-Change  Column Row Layer    Maximum-Flux-Residual          L2-NORM 
          0                 1           2             4    7     1       0.1132045071E-01       4    7    1         0.5900490743E+00      0.1671233801E+01
          0                 2           2             4    7     1      -0.1264375895E-01       4    7    1        -0.6788580094E+00      0.1660520676E+01
          0                 3           2             4    7     1       0.8609906275E-03       4    7    1         0.4751992352E-01      0.1162360462E+00
          0                 4           1             4    7     1      -0.3425963436E-04       4    7    1        -0.1943568301E-02      0.4754064804E-02

    ------------------------------------------------
       NWT REQUIRED            4 OUTER ITERATIONS 
       AND A TOTAL OF          7 INNER ITERATIONS.
    ------------------------------------------------

 NO OUTPUT CONTROL FOR STRESS PERIOD   41   TIME STEP   12
 
 SOLVING FOR HEAD 
                                                   Max.-Head-Change                         Max.-Flux-Residual
  Residual-Control   Outer-Iter.   Inner-Iter.     Column Row Layer    Maximum-Head-Change  Column Row Layer    Maximum-Flux-Residual          L2-NORM 
          0                 1           2             4    7     1       0.1135034004E-01       4    8    1         0.5933259801E+00      0.1674949105E+01
          0                 2           2             4    7     1      -0.1264671043E-01       4    8    1        -0.6791881679E+00      0.1661724153E+01
          0                 3           2             4    7     1       0.8611916163E-03       4    8    1         0.4754274982E-01      0.1163202883E+00
          0                 4           1             4    7     1      -0.3426763193E-04       4    8    1        -0.1944503236E-02      0.4757508657E-02

    ------------------------------------------------
       NWT REQUIRED            4 OUTER ITERATIONS 
       AND A TOTAL OF          7 INNER ITERATIONS.
    ------------------------------------------------

 NO OUTPUT CONTROL FOR STRESS PERIOD   41   TIME STEP   13
 
 SOLVING FOR HEAD 
                                                   Max.-Head-Change                         Max.-Flux-Residual
  Residual-Control   Outer-Iter.   Inner-Iter.     Column Row Layer    Maximum-Head-Change  Column Row Layer    Maximum-Flux-Residual          L2-NORM 
          0                 1           2             4    8     1       0.1139282315E-01       4    8    1         0.5978502191E+00      0.1678687981E+01
          0                 2           2             4    7     1      -0.1264983017E-01       4    8    1        -0.6796429242E+00      0.1662878253E+01
          0                 3           2             4    7     1       0.8614040622E-03       4    8    1         0.4757458184E-01      0.1164010755E+00
          0                 4           1             4    7     1      -0.3427608598E-04       4    8    1        -0.1945805167E-02      0.4760812496E-02

    ------------------------------------------------
       NWT REQUIRED            4 OUTER ITERATIONS 
       AND A TOTAL OF          7 INNER ITERATIONS.
    ------------------------------------------------

 NO OUTPUT CONTROL FOR STRESS PERIOD   41   TIME STEP   14
 
 SOLVING FOR HEAD 
                                                   Max.-Head-Change                         Max.-Flux-Residual
  Residual-Control   Outer-Iter.   Inner-Iter.     Column Row Layer    Maximum-Head-Change  Column Row Layer    Maximum-Flux-Residual          L2-NORM 
          0                 1           2             4    8     1       0.1147364570E-01       4    8    1         0.6022109137E+00      0.1682426996E+01
          0                 2           2             4    7     1      -0.1265310977E-01       4    8    1        -0.6800812663E+00      0.1663986192E+01
          0                 3           2             4    7     1       0.8616273939E-03       4    8    1         0.4760526488E-01      0.1164786288E+00
          0                 4           1             4    7     1      -0.3428497222E-04       4    8    1        -0.1947060098E-02      0.4763984050E-02

    ------------------------------------------------
       NWT REQUIRED            4 OUTER ITERATIONS 
       AND A TOTAL OF          7 INNER ITERATIONS.
    ------------------------------------------------

 NO OUTPUT CONTROL FOR STRESS PERIOD   41   TIME STEP   15
 
 SOLVING FOR HEAD 
                                                   Max.-Head-Change                         Max.-Flux-Residual
  Residual-Control   Outer-Iter.   Inner-Iter.     Column Row Layer    Maximum-Head-Change  Column Row Layer    Maximum-Flux-Residual          L2-NORM 
          0                 1           2             4    8     1       0.1155142940E-01       4    8    1         0.6064078600E+00      0.1686157609E+01
          0                 2           2             4    7     1      -0.1265651644E-01       4    8    1        -0.6805031737E+00      0.1665049843E+01
          0                 3           2             4    7     1       0.8618593774E-03       4    8    1         0.4763479753E-01      0.1165530855E+00
          0                 4           1             4    7     1      -0.3429420315E-04       4    8    1        -0.1948267998E-02      0.4767031858E-02

    ------------------------------------------------
       NWT REQUIRED            4 OUTER ITERATIONS 
       AND A TOTAL OF          7 INNER ITERATIONS.
    ------------------------------------------------

 NO OUTPUT CONTROL FOR STRESS PERIOD   41   TIME STEP   16
 
 SOLVING FOR HEAD 
                                                   Max.-Head-Change                         Max.-Flux-Residual
  Residual-Control   Outer-Iter.   Inner-Iter.     Column Row Layer    Maximum-Head-Change  Column Row Layer    Maximum-Flux-Residual          L2-NORM 
          0                 1           2             4    8     1       0.1162640969E-01       4    8    1         0.6104536969E+00      0.1689862449E+01
          0                 2           2             4    7     1      -0.1266004665E-01       4    8    1        -0.6809099773E+00      0.1666071237E+01
          0                 3           2             4    7     1       0.8620997739E-03       4    8    1         0.4766327295E-01      0.1166245811E+00
          0                 4           1             4    7     1      -0.3430376853E-04       4    8    1        -0.1949432639E-02      0.4769953876E-02

    ------------------------------------------------
       NWT REQUIRED            4 OUTER ITERATIONS 
       AND A TOTAL OF          7 INNER ITERATIONS.
    ------------------------------------------------

 NO OUTPUT CONTROL FOR STRESS PERIOD   41   TIME STEP   17
 
 SOLVING FOR HEAD 
                                                   Max.-Head-Change                         Max.-Flux-Residual
  Residual-Control   Outer-Iter.   Inner-Iter.     Column Row Layer    Maximum-Head-Change  Column Row Layer    Maximum-Flux-Residual          L2-NORM 
          0                 1           2             4    8     1       0.1169845601E-01       4    8    1         0.6143412908E+00      0.1693521792E+01
          0                 2           2             4    7     1      -0.1266366857E-01       4    8    1        -0.6813008894E+00      0.1667051667E+01
          0                 3           2             4    7     1       0.8623464140E-03       4    8    1         0.4769063601E-01      0.1166932123E+00
          0                 4           1             4    7     1      -0.3431358269E-04       4    8    1        -0.1950551802E-02      0.4772761264E-02

    ------------------------------------------------
       NWT REQUIRED            4 OUTER ITERATIONS 
       AND A TOTAL OF          7 INNER ITERATIONS.
    ------------------------------------------------

 NO OUTPUT CONTROL FOR STRESS PERIOD   41   TIME STEP   18
 
 SOLVING FOR HEAD 
                                                   Max.-Head-Change                         Max.-Flux-Residual
  Residual-Control   Outer-Iter.   Inner-Iter.     Column Row Layer    Maximum-Head-Change  Column Row Layer    Maximum-Flux-Residual          L2-NORM 
          0                 1           2             4    8     1       0.1176792174E-01       4    8    1         0.6180896453E+00      0.1697134598E+01
          0                 2           2             4    7     1      -0.1266738037E-01       4    8    1        -0.6816778105E+00      0.1667993713E+01
          0                 3           2             4    7     1       0.8625991747E-03       4    8    1         0.4771701972E-01      0.1167591548E+00
          0                 4           1             4    7     1      -0.3432364001E-04       4    8    1        -0.1951630902E-02      0.4775456586E-02

    ------------------------------------------------
       NWT REQUIRED            4 OUTER ITERATIONS 
       AND A TOTAL OF          7 INNER ITERATIONS.
    ------------------------------------------------

 NO OUTPUT CONTROL FOR STRESS PERIOD   41   TIME STEP   19
 
 SOLVING FOR HEAD 
                                                   Max.-Head-Change                         Max.-Flux-Residual
  Residual-Control   Outer-Iter.   Inner-Iter.     Column Row Layer    Maximum-Head-Change  Column Row Layer    Maximum-Flux-Residual          L2-NORM 
          0                 1           2             4    8     1       0.1183467041E-01       4    8    1         0.6216913374E+00      0.1700686615E+01
          0                 2           2             4    7     1      -0.1267116844E-01       4    8    1        -0.6820400724E+00      0.1668898213E+01
          0                 3           2             4    7     1       0.8628571294E-03       4    8    1         0.4774237731E-01      0.1168224671E+00
          0                 4           1             4    7     1      -0.3433390444E-04       4    8    1        -0.1952668038E-02      0.4778047911E-02

    ------------------------------------------------
       NWT REQUIRED            4 OUTER ITERATIONS 
       AND A TOTAL OF          7 INNER ITERATIONS.
    ------------------------------------------------

 NO OUTPUT CONTROL FOR STRESS PERIOD   41   TIME STEP   20
 
 SOLVING FOR HEAD 
                                                   Max.-Head-Change                         Max.-Flux-Residual
  Residual-Control   Outer-Iter.   Inner-Iter.     Column Row Layer    Maximum-Head-Change  Column Row Layer    Maximum-Flux-Residual          L2-NORM 
          0                 1           2             4    8     1       0.1189904295E-01       4    8    1         0.6251650302E+00      0.1704170767E+01
          0                 2           2             4    7     1      -0.1267500494E-01       4    8    1        -0.6823894746E+00      0.1669767212E+01
          0                 3           2             4    7     1       0.8631183805E-03       4    8    1         0.4776683475E-01      0.1168832983E+00
          0                 4           1             4    7     1      -0.3434429977E-04       4    8    1        -0.1953668351E-02      0.4780537297E-02

    ------------------------------------------------
       NWT REQUIRED            4 OUTER ITERATIONS 
       AND A TOTAL OF          7 INNER ITERATIONS.
    ------------------------------------------------

 NO OUTPUT CONTROL FOR STRESS PERIOD   41   TIME STEP   21
 
 SOLVING FOR HEAD 
                                                   Max.-Head-Change                         Max.-Flux-Residual
  Residual-Control   Outer-Iter.   Inner-Iter.     Column Row Layer    Maximum-Head-Change  Column Row Layer    Maximum-Flux-Residual          L2-NORM 
          0                 1           2             4    8     1       0.1196089580E-01       4    8    1         0.6285026533E+00      0.1707579381E+01
          0                 2           2             4    7     1      -0.1267887906E-01       4    8    1        -0.6827252769E+00      0.1670601848E+01
          0                 3           2             4    7     1       0.8633821936E-03       4    8    1         0.4779034022E-01      0.1169417216E+00
          0                 4           1             4    7     1      -0.3435479711E-04       4    8    1        -0.1954629723E-02      0.4782925025E-02

    ------------------------------------------------
       NWT REQUIRED            4 OUTER ITERATIONS 
       AND A TOTAL OF          7 INNER ITERATIONS.
    ------------------------------------------------

 NO OUTPUT CONTROL FOR STRESS PERIOD   41   TIME STEP   22
 
 SOLVING FOR HEAD 
                                                   Max.-Head-Change                         Max.-Flux-Residual
  Residual-Control   Outer-Iter.   Inner-Iter.     Column Row Layer    Maximum-Head-Change  Column Row Layer    Maximum-Flux-Residual          L2-NORM 
          0                 1           2             4    8     1       0.1202044924E-01       4    8    1         0.6317160577E+00      0.1710911465E+01
          0                 2           2             4    7     1      -0.1268280433E-01       4    8    1        -0.6830485830E+00      0.1671404048E+01
          0                 3           2             4    7     1       0.8636494903E-03       4    8    1         0.4781297098E-01      0.1169978772E+00
          0                 4           1             4    7     1      -0.3436543317E-04       4    8    1        -0.1955555325E-02      0.4785221903E-02

    ------------------------------------------------
       NWT REQUIRED            4 OUTER ITERATIONS 
       AND A TOTAL OF          7 INNER ITERATIONS.
    ------------------------------------------------

 NO OUTPUT CONTROL FOR STRESS PERIOD   41   TIME STEP   23
 
 SOLVING FOR HEAD 
                                                   Max.-Head-Change                         Max.-Flux-Residual
  Residual-Control   Outer-Iter.   Inner-Iter.     Column Row Layer    Maximum-Head-Change  Column Row Layer    Maximum-Flux-Residual          L2-NORM 
          0                 1           2             4    8     1       0.1207791057E-01       4    8    1         0.6348167034E+00      0.1714165605E+01
          0                 2           2             4    7     1      -0.1268673202E-01       4    8    1        -0.6833606203E+00      0.1672175142E+01
          0                 3           2             4    7     1       0.8639169503E-03       4    8    1         0.4783481297E-01      0.1170518521E+00
          0                 4           1             4    7     1      -0.3437607580E-04       4    8    1        -0.1956448666E-02      0.4787428810E-02

    ------------------------------------------------
       NWT REQUIRED            4 OUTER ITERATIONS 
       AND A TOTAL OF          7 INNER ITERATIONS.
    ------------------------------------------------

 NO OUTPUT CONTROL FOR STRESS PERIOD   41   TIME STEP   24
 
 SOLVING FOR HEAD 
                                                   Max.-Head-Change                         Max.-Flux-Residual
  Residual-Control   Outer-Iter.   Inner-Iter.     Column Row Layer    Maximum-Head-Change  Column Row Layer    Maximum-Flux-Residual          L2-NORM 
          0                 1           2             4    8     1       0.1213312467E-01       4    8    1         0.6377960002E+00      0.1717335935E+01
          0                 2           2             4    7     1      -0.1269069155E-01       4    8    1        -0.6836604703E+00      0.1672916065E+01
          0                 3           2             4    7     1       0.8617714536E-03       4    8    1         0.4785580184E-01      0.1170378566E+00
          0                 4           1             4    7     1      -0.3429069751E-04       4    8    1        -0.1957307123E-02      0.4786857364E-02

    ------------------------------------------------
       NWT REQUIRED            4 OUTER ITERATIONS 
       AND A TOTAL OF          7 INNER ITERATIONS.
    ------------------------------------------------

 NO OUTPUT CONTROL FOR STRESS PERIOD   41   TIME STEP   25
 
 SOLVING FOR HEAD 
                                                   Max.-Head-Change                         Max.-Flux-Residual
  Residual-Control   Outer-Iter.   Inner-Iter.     Column Row Layer    Maximum-Head-Change  Column Row Layer    Maximum-Flux-Residual          L2-NORM 
          0                 1           2             4    8     1       0.1218627197E-01       5    8    1         0.6410673021E+00      0.1720376387E+01
          0                 2           2             4    7     1      -0.1269509480E-01       5    8    1        -0.6839895109E+00      0.1673637703E+01
          0                 3           2             4    7     1       0.8587436940E-03       5    8    1         0.4787893987E-01      0.1170123126E+00
          0                 4           1             4    7     1      -0.3417022005E-04       5    8    1        -0.1958252969E-02      0.4785811868E-02

    ------------------------------------------------
       NWT REQUIRED            4 OUTER ITERATIONS 
       AND A TOTAL OF          7 INNER ITERATIONS.
    ------------------------------------------------

 NO OUTPUT CONTROL FOR STRESS PERIOD   41   TIME STEP   26
 
 SOLVING FOR HEAD 
                                                   Max.-Head-Change                         Max.-Flux-Residual
  Residual-Control   Outer-Iter.   Inner-Iter.     Column Row Layer    Maximum-Head-Change  Column Row Layer    Maximum-Flux-Residual          L2-NORM 
          0                 1           2             4    8     1       0.1223724511E-01       5    8    1         0.6443844471E+00      0.1723320166E+01
          0                 2           2             4    7     1      -0.1270464021E-01       5    8    1        -0.6843230846E+00      0.1674299453E+01
          0                 3           2             4    7     1       0.8651378473E-03       5    8    1         0.4790228970E-01      0.1172005905E+00
          0                 4           1             4    7     1      -0.3442464986E-04       5    8    1        -0.1959207989E-02      0.4793512861E-02

    ------------------------------------------------
       NWT REQUIRED            4 OUTER ITERATIONS 
       AND A TOTAL OF          7 INNER ITERATIONS.
    ------------------------------------------------

 NO OUTPUT CONTROL FOR STRESS PERIOD   41   TIME STEP   27
 
 SOLVING FOR HEAD 
                                                   Max.-Head-Change                         Max.-Flux-Residual
  Residual-Control   Outer-Iter.   Inner-Iter.     Column Row Layer    Maximum-Head-Change  Column Row Layer    Maximum-Flux-Residual          L2-NORM 
          0                 1           2             4    8     1       0.1228642346E-01       5    8    1         0.6475209762E+00      0.1726173788E+01
          0                 2           2             4    7     1      -0.1270829918E-01       5    8    1        -0.6846385891E+00      0.1674949963E+01
          0                 3           2             4    7     1       0.8653870119E-03       5    8    1         0.4792437469E-01      0.1172461270E+00
          0                 4           1             4    7     1      -0.3443456430E-04       5    8    1        -0.1960111257E-02      0.4795374905E-02

    ------------------------------------------------
       NWT REQUIRED            4 OUTER ITERATIONS 
       AND A TOTAL OF          7 INNER ITERATIONS.
    ------------------------------------------------

 NO OUTPUT CONTROL FOR STRESS PERIOD   41   TIME STEP   28
 
 SOLVING FOR HEAD 
                                                   Max.-Head-Change                         Max.-Flux-Residual
  Residual-Control   Outer-Iter.   Inner-Iter.     Column Row Layer    Maximum-Head-Change  Column Row Layer    Maximum-Flux-Residual          L2-NORM 
          0                 1           2             4    8     1       0.1233364501E-01       5    8    1         0.6504877672E+00      0.1728946843E+01
          0                 2           2             4    7     1      -0.1271197038E-01       5    8    1        -0.6849370600E+00      0.1675576386E+01
          0                 3           2             4    7     1       0.8656370087E-03       5    8    1         0.4794526737E-01      0.1172899756E+00
          0                 4           1             4    7     1      -0.3444451167E-04       5    8    1        -0.1960965785E-02      0.4797168324E-02

    ------------------------------------------------
       NWT REQUIRED            4 OUTER ITERATIONS 
       AND A TOTAL OF          7 INNER ITERATIONS.
    ------------------------------------------------

 NO OUTPUT CONTROL FOR STRESS PERIOD   41   TIME STEP   29
 
 SOLVING FOR HEAD 
                                                   Max.-Head-Change                         Max.-Flux-Residual
  Residual-Control   Outer-Iter.   Inner-Iter.     Column Row Layer    Maximum-Head-Change  Column Row Layer    Maximum-Flux-Residual          L2-NORM 
          0                 1           2             4    8     1       0.1237910577E-01       5    8    1         0.6532872697E+00      0.1731622690E+01
          0                 2           2             4    7     1      -0.1271562906E-01       5    8    1        -0.6852187350E+00      0.1676177649E+01
          0                 3           2             4    7     1       0.8658861527E-03       5    8    1         0.4796498434E-01      0.1173320649E+00
          0                 4           1             4    7     1      -0.3445442543E-04       5    8    1        -0.1961772209E-02      0.4798889524E-02

    ------------------------------------------------
       NWT REQUIRED            4 OUTER ITERATIONS 
       AND A TOTAL OF          7 INNER ITERATIONS.
    ------------------------------------------------

 NO OUTPUT CONTROL FOR STRESS PERIOD   41   TIME STEP   30



 STREAM LISTING     PERIOD     41   STEP       30

 LAYER ROW COL. STREAM  RCH.  FLOW INTO     FLOW TO   FLOW OUT OF   OVRLND.     DIRECT     STREAM       STREAM     STREAM     STREAM   STREAMBED  STREAMBED
                SEG.NO.  NO.  STRM. RCH.    AQUIFER    STRM. RCH.    RUNOFF     PRECIP       ET          HEAD       DEPTH      WIDTH   CONDCTNC.   GRADIENT

   1    1    1     1     1    1.9000E+01  2.1427E-01   1.8786E+01  0.000E+00  0.000E+00  0.000E+00  1.09413E+03  1.082E+00  1.166E+01  5.249E-02  1.361E+00
   1    2    2     1     2    1.8786E+01  3.3054E-01   1.8455E+01  0.000E+00  0.000E+00  0.000E+00  1.08914E+03  1.077E+00  1.158E+01  8.107E-02  1.359E+00
   1    3    3     1     3    1.8455E+01  2.8064E-01   1.8175E+01  0.000E+00  0.000E+00  0.000E+00  1.08349E+03  1.072E+00  1.149E+01  6.892E-02  1.357E+00
   1    3    4     1     4    1.8175E+01  2.5740E-01   1.7917E+01  0.000E+00  0.000E+00  0.000E+00  1.07848E+03  1.068E+00  1.140E+01  6.328E-02  1.356E+00
   1    4    5     2     1    1.5917E+01  3.0542E-01   1.5612E+01  0.000E+00  0.000E+00  0.000E+00  1.07285E+03  9.157E-01  1.200E+01  7.800E-02  1.305E+00
   1    5    6     2     2    1.5612E+01  2.3438E-01   1.5377E+01  0.000E+00  0.000E+00  0.000E+00  1.06742E+03  9.063E-01  1.200E+01  6.000E-02  1.302E+00
   1    6    6     2     3    1.5377E+01  2.3388E-01   1.5143E+01  0.000E+00  0.000E+00  0.000E+00  1.06269E+03  8.980E-01  1.200E+01  6.000E-02  1.299E+00
   1    7    6     2     4    1.5143E+01  2.3338E-01   1.4910E+01  0.000E+00  0.000E+00  0.000E+00  1.05797E+03  8.897E-01  1.200E+01  6.000E-02  1.297E+00
   1    8    6     2     5    1.4910E+01  2.3289E-01   1.4677E+01  0.000E+00  0.000E+00  0.000E+00  1.05324E+03  8.814E-01  1.200E+01  6.000E-02  1.294E+00
   1    3    5     3     1    2.0000E+00  2.8252E-01   1.7175E+00  0.000E+00  0.000E+00  0.000E+00  1.07555E+03  1.909E+00  9.636E+00  7.227E-02  1.955E+00
   1    3    6     3     2    1.7175E+00  2.4905E-01   1.4684E+00  0.000E+00  0.000E+00  0.000E+00  1.07264E+03  1.727E+00  8.909E+00  6.682E-02  1.864E+00
   1    3    7     3     3    1.4684E+00  1.9718E-01   1.2712E+00  0.000E+00  0.000E+00  0.000E+00  1.06987E+03  1.555E+00  8.218E+00  5.547E-02  1.777E+00
   1    4    8     3     4    1.2712E+00  2.2567E-01   1.0456E+00  0.000E+00  0.000E+00  0.000E+00  1.06682E+03  1.364E+00  7.455E+00  6.709E-02  1.682E+00
   1    5    8     3     5    1.0456E+00  1.5790E-01   8.8768E-01  0.000E+00  0.000E+00  0.000E+00  1.06362E+03  1.164E+00  6.655E+00  4.991E-02  1.582E+00
   1    6    8     3     6    8.8768E-01  5.5980E-02   8.3170E-01  0.000E+00  0.000E+00  0.000E+00  1.06158E+03  1.036E+00  6.145E+00  1.844E-02  1.518E+00
   1    5   10     4     1    1.0000E+01  9.0919E-02   9.9091E+00  0.000E+00  0.000E+00  0.000E+00  1.07836E+03  6.368E-01  1.000E+01  2.500E-02  1.212E+00
   1    5    9     4     2    9.9091E+00  1.8158E-01   9.7275E+00  0.000E+00  0.000E+00  0.000E+00  1.07154E+03  6.315E-01  1.000E+01  5.000E-02  1.211E+00
   1    6    8     4     3    9.7275E+00  1.2689E-01   9.6006E+00  0.000E+00  0.000E+00  0.000E+00  1.06381E+03  6.256E-01  1.000E+01  3.500E-02  1.209E+00
   1    6    8     5     1    1.0432E+01  2.2686E-01   1.0205E+01  0.000E+00  0.000E+00  0.000E+00  1.05868E+03  6.790E-01  1.542E+01  6.166E-02  1.226E+00
   1    7    7     5     2    1.0205E+01  2.7894E-01   9.9265E+00  0.000E+00  0.000E+00  0.000E+00  1.05417E+03  6.732E-01  1.519E+01  7.594E-02  1.224E+00
   1    8    7     5     3    9.9265E+00  1.9221E-01   9.7343E+00  0.000E+00  0.000E+00  0.000E+00  1.04992E+03  6.676E-01  1.497E+01  5.241E-02  1.223E+00
   1    8    6     5     4    9.7343E+00  1.3577E-01   9.5985E+00  0.000E+00  0.000E+00  0.000E+00  1.04691E+03  6.637E-01  1.482E+01  3.706E-02  1.221E+00
   1    9    6     6     1    2.4276E+01  2.5176E-01   2.4024E+01  0.000E+00  0.000E+00  0.000E+00  1.04392E+03  1.196E+00  1.200E+01  6.000E-02  1.399E+00
   1   10    7     6     2    2.4024E+01  2.5131E-01   2.3773E+01  0.000E+00  0.000E+00  0.000E+00  1.03937E+03  1.188E+00  1.200E+01  6.000E-02  1.396E+00
   1   11    7     6     3    2.3773E+01  2.5086E-01   2.3522E+01  0.000E+00  0.000E+00  0.000E+00  1.03482E+03  1.181E+00  1.200E+01  6.000E-02  1.394E+00
   1   12    7     6     4    2.3522E+01  2.5041E-01   2.3271E+01  0.000E+00  0.000E+00  0.000E+00  1.03026E+03  1.173E+00  1.200E+01  6.000E-02  1.391E+00
   1   13    7     6     5    2.3271E+01  1.0561E-02   2.3261E+01  0.000E+00  0.000E+00  0.000E+00  1.02708E+03  1.170E+00  1.200E+01  2.400E-02  1.467E-01
   1   14    9     7     1    1.5000E+02  1.3675E+00   1.4863E+02  0.000E+00  0.000E+00  0.000E+00  1.03987E+03  2.288E+00  5.529E+01  5.593E-01  8.150E-01
   1   13    8     7     2    1.4863E+02  1.9620E+00   1.4667E+02  0.000E+00  0.000E+00  0.000E+00  1.03478E+03  2.279E+00  5.525E+01  6.147E-01  1.064E+00
   1   13    7     7     3    1.4667E+02  1.7029E+00   1.4497E+02  0.000E+00  0.000E+00  0.000E+00  1.02969E+03  2.269E+00  5.521E+01  5.584E-01  1.017E+00
   1   13    6     8     1    1.6823E+02  1.1402E+00   1.6709E+02  0.000E+00  0.000E+00  0.000E+00  1.02481E+03  2.937E+00  4.258E+01  4.340E-01  8.758E-01
   1   13    5     8     2    1.6709E+02  3.7915E-01   1.6671E+02  0.000E+00  0.000E+00  0.000E+00  1.01856E+03  2.932E+00  4.251E+01  4.332E-01  2.917E-01
   1   13    4     8     3    1.6671E+02 -1.7523E+00   1.6846E+02  0.000E+00  0.000E+00  0.000E+00  1.01231E+03  2.936E+00  4.258E+01  4.339E+00 -1.346E-01
   1   13    3     8     4    1.6846E+02 -3.3150E+00   1.7178E+02  0.000E+00  0.000E+00  0.000E+00  1.00608E+03  2.953E+00  4.282E+01  4.363E+00 -2.533E-01
   1   13    2     8     5    1.7178E+02 -2.4960E+00   1.7427E+02  0.000E+00  0.000E+00  0.000E+00  9.99847E+02  2.972E+00  4.309E+01  4.391E+00 -1.895E-01
   1   13    1     8     6    1.7427E+02 -1.9618E+00   1.7623E+02  0.000E+00  0.000E+00  0.000E+00  9.94861E+02  2.986E+00  4.330E+01  2.647E+00 -2.470E-01





UNSATURATED ZONE PACKAGE VOLUMETRIC BUDGET FOR  TIME STEP    30 STRESS PERIOD   41
  ------------------------------------------------------------------------------



     CUMULATIVE VOLUMES      L**3       RATES FOR THIS TIME STEP      L**3/T
     ------------------                 ------------------------

           IN:                                      IN:
           ---                                      ---
        INFILTRATION =  1310714207.5769          INFILTRATION =           4.5668

          OUT:                                     OUT:
          ----                                     ----
              UZF ET =  1309856175.4062                UZF ET =           4.5675
        UZF RECHARGE =       73224.0000          UZF RECHARGE =       0.0000E+00

            IN - OUT =      784808.1707              IN - OUT =      -6.6167E-04

          STORAGE:                                 STORAGE:
          --------                                 --------
      STORAGE CHANGE =      784799.7614        STORAGE CHANGE =      -6.6181E-04

 PERCENT DISCREPANCY IS DIFFERENCE BETWEEN IN-OUT MINUS CHANGE IN STORAGE
 DIVIDED BY THE AVERAGE OF IN AND OUT TIMES 100

 PERCENT DISCREPANCY =           0.00     PERCENT DISCREPANCY =           0.00






1
  VOLUMETRIC BUDGET FOR AGRICULTURAL FIELDS AT  END OF TIME STEP   30, STRESS PERIOD  41
  ------------------------------------------------------------------------------

     CUMULATIVE VOLUMES      L**3       RATES FOR THIS TIME STEP      L**3/T
     ------------------                 ------------------------

           IN:                                      IN:
           ---                                      ---
               AG WELLS  =  1221478400.0000                 AG WELLS  =           3.7193
      DIVERSION SEGMENTS =           0.0000        DIVERSION SEGMENTS =           0.0000
       IRRIGATION PONDS  =           0.0000         IRRIGATION PONDS  =           0.0000
           GW IRRIGATION =           0.0000             GW IRRIGATION =           0.0000
           SW IRRIGATION =           0.0000             SW IRRIGATION =           0.0000
        SYSTEM LOSSES GW =           0.0000          SYSTEM LOSSES GW =           0.0000
        SYSTEM LOSSES SW =           0.0000          SYSTEM LOSSES SW =           0.0000

                TOTAL IN =  1221478400.0000                  TOTAL IN =           3.7193

          OUT:                                     OUT:
          ----                                     ----
               AG WELLS  =           0.0000                 AG WELLS  =           0.0000
      DIVERSION SEGMENTS =           0.0000        DIVERSION SEGMENTS =           0.0000
       IRRIGATION PONDS  =           0.0000         IRRIGATION PONDS  =           0.0000
           GW IRRIGATION =  1221478400.0000             GW IRRIGATION =           3.7193
           SW IRRIGATION =           0.0000             SW IRRIGATION =           0.0000
        SYSTEM LOSSES GW =           0.0000          SYSTEM LOSSES GW =           0.0000
        SYSTEM LOSSES SW =           0.0000          SYSTEM LOSSES SW =           0.0000

               TOTAL OUT =  1221478400.0000                 TOTAL OUT =           3.7193

                IN - OUT =           0.0000                  IN - OUT =           0.0000

     PERCENT DISCREPANCY =           0.00         PERCENT DISCREPANCY =           0.00



1
  VOLUMETRIC BUDGET FOR ENTIRE MODEL AT END OF TIME STEP   30, STRESS PERIOD  41
  ------------------------------------------------------------------------------

     CUMULATIVE VOLUMES      L**3       RATES FOR THIS TIME STEP      L**3/T
     ------------------                 ------------------------

           IN:                                      IN:
           ---                                      ---
             STORAGE     =  1709138432.0000               STORAGE     =           3.6405
       CONSTANT HEAD     =           0.0000         CONSTANT HEAD     =           0.0000
     HEAD DEP BOUNDS     =    30114348.0000       HEAD DEP BOUNDS     =           0.2879
      STREAM LEAKAGE     =  1289350144.0000        STREAM LEAKAGE     =          12.2909
        UZF RECHARGE     =       73223.9531          UZF RECHARGE     =           0.0000
               GW ET     =           0.0000                 GW ET     =           0.0000
     SURFACE LEAKAGE     =           0.0000       SURFACE LEAKAGE     =           0.0000
           AG WELLS      =           0.0000             AG WELLS      =           0.0000

                TOTAL IN =  3028676096.0000                  TOTAL IN =          16.2193

          OUT:                                     OUT:
          ----                                     ----
             STORAGE     =   686505792.0000               STORAGE     =           2.6858
       CONSTANT HEAD     =           0.0000         CONSTANT HEAD     =           0.0000
     HEAD DEP BOUNDS     =    30752798.0000       HEAD DEP BOUNDS     =           0.2889
      STREAM LEAKAGE     =  1072339712.0000        STREAM LEAKAGE     =           9.5251
        UZF RECHARGE     =           0.0000          UZF RECHARGE     =           0.0000
               GW ET     =    17603406.0000                 GW ET     =           0.0000
     SURFACE LEAKAGE     =           0.0000       SURFACE LEAKAGE     =           0.0000
           AG WELLS      =  1221478400.0000             AG WELLS      =           3.7193

               TOTAL OUT =  3028680192.0000                 TOTAL OUT =          16.2191

                IN - OUT =       -4096.0000                  IN - OUT =       1.4877E-04

     PERCENT DISCREPANCY =          -0.00         PERCENT DISCREPANCY =           0.00






         TIME SUMMARY AT END OF TIME STEP   30 IN STRESS PERIOD   41
                    SECONDS     MINUTES      HOURS       DAYS        YEARS
                    -----------------------------------------------------------
   TIME STEP LENGTH  87667.      1461.1      24.352      1.0147     2.77799E-03
 STRESS PERIOD TIME 2.63000E+06  43833.      730.56      30.440     8.33397E-02
         TOTAL TIME 1.05286E+08 1.75476E+06  29246.      1218.6      3.3363    
1
1
                            STRESS PERIOD NO.   42, LENGTH =   2630000.    
                            -----------------------------------------------

                              NUMBER OF TIME STEPS =    30

                               MULTIPLIER FOR DELT =     1.000

                            INITIAL TIME STEP SIZE =   87666.66    

 REUSING NON-PARAMETER GHB CELLS FROM LAST STRESS PERIOD

      2 GHB CELLS

 REUSING STREAM SEGMENT DATA FROM LAST STRESS PERIOD



            AREAL INFILTRATION RATE
 READING ON UNIT   19 WITH FORMAT: (FREE)              

            1           2           3           4           5           6           7           8           9          10
 ........................................................................................................................
   1   1.0000E-10  2.0000E-10   0.000       0.000       0.000       0.000       0.000       0.000       0.000       0.000    
   2   2.0000E-10  1.0000E-10  2.0000E-10   0.000       0.000      8.0000E-10  8.0000E-10  5.0000E-10   0.000       0.000    
   3    0.000      5.0000E-10  1.0000E-10  1.0000E-10  8.0000E-10  8.0000E-10  5.0000E-10  5.0000E-10   0.000       0.000    
   4   8.0000E-10  5.0000E-10  1.0000E-10  1.0000E-10  1.0000E-10  1.0000E-10  1.0000E-10  1.0000E-10  2.0000E-10   0.000    
   5   8.0000E-10  5.0000E-10  1.0000E-10  1.0000E-10  1.0000E-10  1.0000E-10  1.0000E-10  1.0000E-10  1.0000E-10  1.0000E-10
   6   8.0000E-10  5.0000E-10  5.0000E-10  2.0000E-10  2.0000E-10  1.0000E-10  1.0000E-10  1.0000E-10  1.0000E-10  5.0000E-10
   7   8.0000E-10  5.0000E-10  5.0000E-10  2.0000E-10  2.0000E-10  1.0000E-10  1.0000E-10  2.0000E-10  2.0000E-10   0.000    
   8    0.000      5.0000E-10  5.0000E-10  2.0000E-10  2.0000E-10  1.0000E-10  1.0000E-10  2.0000E-10  5.0000E-10   0.000    
   9    0.000      5.0000E-10  5.0000E-10  2.0000E-10  2.0000E-10  1.0000E-10  1.0000E-10  2.0000E-10  5.0000E-10   0.000    
  10    0.000      5.0000E-10  5.0000E-10  2.0000E-10  2.0000E-10  1.0000E-10  1.0000E-10  2.0000E-10  5.0000E-10  8.0000E-10
  11    0.000      1.0000E-10  1.0000E-10  1.0000E-10  1.0000E-10  1.0000E-10  1.0000E-10  2.0000E-10  5.0000E-10   0.000    
  12   1.0000E-10  1.0000E-10  1.0000E-10  1.0000E-10  1.0000E-10  1.0000E-10  1.0000E-10  1.0000E-10  2.0000E-10   0.000    
  13   1.0000E-10  1.0000E-10  2.0000E-10  2.0000E-10  2.0000E-10  2.0000E-10  2.0000E-10  1.0000E-10  1.0000E-10   0.000    
  14    0.000      2.0000E-10  5.0000E-10  5.0000E-10  5.0000E-10  5.0000E-10  5.0000E-10  2.0000E-10  1.0000E-10   0.000    
  15    0.000       0.000      8.0000E-10  8.0000E-10  8.0000E-10  8.0000E-10   0.000       0.000       0.000       0.000    

                  ET RATE =  5.000000E-08

 USING ET EXTINCTION DEPTH FROM PREVIOUS STRESS PERIOD. CURRENT PERIOD IS:      42

 USING EXTINCTION WATER CONTENT FROM PREVIOUS STRESS PERIOD. CURRENT PERIOD IS:      42

 USING AIR ENTRY PRESSURE FROM PREVIOUS STRESS PERIOD. CURRENT PERIOD IS:      42

 USING ROOT PRESSURE HEAD FROM PREVIOUS STRESS PERIOD. CURRENT PERIOD IS:      42

 USING ROOT ACTIVITY FROM PREVIOUS STRESS PERIOD. CURRENT PERIOD IS:      42

 PROCESSING AG STRESS PERIOD DATA

 READING AG STRESS PERIOD DATA

 READING IRRIGATION WELL

 NO IRRPOND OR REUSING IRRPOND DATA FROM LAST STRESS PERIOD

 END PROCESSING AG STRESS PERIOD DATA OPTIONS
 
 SOLVING FOR HEAD 
                                                   Max.-Head-Change                         Max.-Flux-Residual
  Residual-Control   Outer-Iter.   Inner-Iter.     Column Row Layer    Maximum-Head-Change  Column Row Layer    Maximum-Flux-Residual          L2-NORM 
          0                 1           2             4    7     1      -0.1191789175E-01       4    7    1        -0.6241834757E+00      0.1669491697E+01
          0                 2           2             4    7     1       0.1159285784E-02       4    7    1         0.6241834769E-01      0.1669484793E+00
          0                 3           1             4    7     1      -0.7894306430E-04       4    7    1        -0.4369286235E-02      0.1168634757E-01

    ------------------------------------------------
       NWT REQUIRED            3 OUTER ITERATIONS 
       AND A TOTAL OF          5 INNER ITERATIONS.
    ------------------------------------------------

 NO OUTPUT CONTROL FOR STRESS PERIOD   42   TIME STEP    1
 
 SOLVING FOR HEAD 
                                                   Max.-Head-Change                         Max.-Flux-Residual
  Residual-Control   Outer-Iter.   Inner-Iter.     Column Row Layer    Maximum-Head-Change  Column Row Layer    Maximum-Flux-Residual          L2-NORM 
          0                 1           2             5    8     1       0.1270264348E-01       5    8    1         0.6765872319E+00      0.1757795568E+01
          0                 2           2             4    7     1      -0.2437315214E-01       5    8    1        -0.1312513055E+01      0.3210216703E+01
          0                 3           2             4    7     1       0.1659717567E-02       5    8    1         0.9187467945E-01      0.2247137344E+00
          0                 4           1             4    7     1      -0.6604173266E-04       5    8    1        -0.3757685542E-02      0.9190811330E-02

    ------------------------------------------------
       NWT REQUIRED            4 OUTER ITERATIONS 
       AND A TOTAL OF          7 INNER ITERATIONS.
    ------------------------------------------------

 NO OUTPUT CONTROL FOR STRESS PERIOD   42   TIME STEP    2
 
 SOLVING FOR HEAD 
                                                   Max.-Head-Change                         Max.-Flux-Residual
  Residual-Control   Outer-Iter.   Inner-Iter.     Column Row Layer    Maximum-Head-Change  Column Row Layer    Maximum-Flux-Residual          L2-NORM 
          0                 1           2             5    8     1       0.1305444073E-01       5    8    1         0.6959327212E+00      0.1781246586E+01
          0                 2           2             4    7     1      -0.2438335566E-01       5    8    1        -0.1314448945E+01      0.3213485916E+01
          0                 3           2             4    7     1       0.1660412417E-02       5    8    1         0.9201018682E-01      0.2249425765E+00
          0                 4           1             4    7     1      -0.6606938171E-04       5    8    1        -0.3763227822E-02      0.9200169847E-02

    ------------------------------------------------
       NWT REQUIRED            4 OUTER ITERATIONS 
       AND A TOTAL OF          7 INNER ITERATIONS.
    ------------------------------------------------

 NO OUTPUT CONTROL FOR STRESS PERIOD   42   TIME STEP    3
 
 SOLVING FOR HEAD 
                                                   Max.-Head-Change                         Max.-Flux-Residual
  Residual-Control   Outer-Iter.   Inner-Iter.     Column Row Layer    Maximum-Head-Change  Column Row Layer    Maximum-Flux-Residual          L2-NORM 
          0                 1           2             5    8     1       0.1338709452E-01       5    8    1         0.7142116822E+00      0.1804612540E+01
          0                 2           2             4    7     1      -0.2439397186E-01       5    8    1        -0.1316278180E+01      0.3216641804E+01
          0                 3           2             4    7     1       0.1661135366E-02       5    8    1         0.9213822876E-01      0.2251634864E+00
          0                 4           1             4    7     1      -0.6609814818E-04       5    8    1        -0.3768464769E-02      0.9209206792E-02

    ------------------------------------------------
       NWT REQUIRED            4 OUTER ITERATIONS 
       AND A TOTAL OF          7 INNER ITERATIONS.
    ------------------------------------------------

 NO OUTPUT CONTROL FOR STRESS PERIOD   42   TIME STEP    4
 
 SOLVING FOR HEAD 
                                                   Max.-Head-Change                         Max.-Flux-Residual
  Residual-Control   Outer-Iter.   Inner-Iter.     Column Row Layer    Maximum-Head-Change  Column Row Layer    Maximum-Flux-Residual          L2-NORM 
          0                 1           2             5    8     1       0.1370192767E-01       5    8    1         0.7314980995E+00      0.1827816780E+01
          0                 2           2             4    7     1      -0.2440495212E-01       5    8    1        -0.1318008041E+01      0.3219690432E+01
          0                 3           2             4    7     1       0.1661883105E-02       5    8    1         0.9225931476E-01      0.2253768873E+00
          0                 4           1             4    7     1      -0.6612790141E-04       5    8    1        -0.3773417211E-02      0.9217935000E-02

    ------------------------------------------------
       NWT REQUIRED            4 OUTER ITERATIONS 
       AND A TOTAL OF          7 INNER ITERATIONS.
    ------------------------------------------------

 NO OUTPUT CONTROL FOR STRESS PERIOD   42   TIME STEP    5
 
 SOLVING FOR HEAD 
                                                   Max.-Head-Change                         Max.-Flux-Residual
  Residual-Control   Outer-Iter.   Inner-Iter.     Column Row Layer    Maximum-Head-Change  Column Row Layer    Maximum-Flux-Residual          L2-NORM 
          0                 1           2             5    8     1       0.1400001047E-01       5    8    1         0.7478527158E+00      0.1850764432E+01
          0                 2           2             4    7     1      -0.2441624528E-01       5    8    1        -0.1319644839E+01      0.3222635275E+01
          0                 3           2             4    7     1       0.1662652149E-02       5    8    1         0.9237388671E-01      0.2255830219E+00
          0                 4           1             4    7     1      -0.6615850210E-04       5    8    1        -0.3778103227E-02      0.9226365481E-02

    ------------------------------------------------
       NWT REQUIRED            4 OUTER ITERATIONS 
       AND A TOTAL OF          7 INNER ITERATIONS.
    ------------------------------------------------

 NO OUTPUT CONTROL FOR STRESS PERIOD   42   TIME STEP    6
 
 SOLVING FOR HEAD 
                                                   Max.-Head-Change                         Max.-Flux-Residual
  Residual-Control   Outer-Iter.   Inner-Iter.     Column Row Layer    Maximum-Head-Change  Column Row Layer    Maximum-Flux-Residual          L2-NORM 
          0                 1           2             5    8     1       0.1428262083E-01       5    8    1         0.7633467103E+00      0.1873420354E+01
          0                 2           2             4    7     1      -0.2442782053E-01       5    8    1        -0.1321195455E+01      0.3225482470E+01
          0                 3           2             4    7     1       0.1663440399E-02       5    8    1         0.9248242612E-01      0.2257823243E+00
          0                 4           1             4    7     1      -0.6618986746E-04       5    8    1        -0.3782542503E-02      0.9234516860E-02

    ------------------------------------------------
       NWT REQUIRED            4 OUTER ITERATIONS 
       AND A TOTAL OF          7 INNER ITERATIONS.
    ------------------------------------------------

 NO OUTPUT CONTROL FOR STRESS PERIOD   42   TIME STEP    7
 
 SOLVING FOR HEAD 
                                                   Max.-Head-Change                         Max.-Flux-Residual
  Residual-Control   Outer-Iter.   Inner-Iter.     Column Row Layer    Maximum-Head-Change  Column Row Layer    Maximum-Flux-Residual          L2-NORM 
          0                 1           2             5    8     1       0.1455065565E-01       5    8    1         0.7780306517E+00      0.1895717625E+01
          0                 2           2             4    7     1      -0.2443964218E-01       5    8    1        -0.1322665065E+01      0.3228234553E+01
          0                 3           2             4    7     1       0.1664245428E-02       5    8    1         0.9258529532E-01      0.2259749670E+00
          0                 4           1             4    7     1      -0.6622189987E-04       5    8    1        -0.3786749888E-02      0.9242395672E-02

    ------------------------------------------------
       NWT REQUIRED            4 OUTER ITERATIONS 
       AND A TOTAL OF          7 INNER ITERATIONS.
    ------------------------------------------------

 NO OUTPUT CONTROL FOR STRESS PERIOD   42   TIME STEP    8
 
 SOLVING FOR HEAD 
                                                   Max.-Head-Change                         Max.-Flux-Residual
  Residual-Control   Outer-Iter.   Inner-Iter.     Column Row Layer    Maximum-Head-Change  Column Row Layer    Maximum-Flux-Residual          L2-NORM 
          0                 1           2             5    8     1       0.1480522601E-01       5    8    1         0.7919667259E+00      0.1917639863E+01
          0                 2           2             4    7     1      -0.2445167551E-01       5    8    1        -0.1324059886E+01      0.3230897374E+01
          0                 3           2             4    7     1       0.1665064869E-02       5    8    1         0.9268292958E-01      0.2261613622E+00
          0                 4           1             4    7     1      -0.6625450643E-04       5    8    1        -0.3790743146E-02      0.9250020817E-02

    ------------------------------------------------
       NWT REQUIRED            4 OUTER ITERATIONS 
       AND A TOTAL OF          7 INNER ITERATIONS.
    ------------------------------------------------

 NO OUTPUT CONTROL FOR STRESS PERIOD   42   TIME STEP    9
 
 SOLVING FOR HEAD 
                                                   Max.-Head-Change                         Max.-Flux-Residual
  Residual-Control   Outer-Iter.   Inner-Iter.     Column Row Layer    Maximum-Head-Change  Column Row Layer    Maximum-Flux-Residual          L2-NORM 
          0                 1           2             5    8     1       0.1504693380E-01       5    8    1         0.8051890206E+00      0.1939139468E+01
          0                 2           2             4    7     1      -0.2446387458E-01       5    8    1        -0.1325383329E+01      0.3233472743E+01
          0                 3           2             4    7     1       0.1665895594E-02       5    8    1         0.9277556755E-01      0.2263416368E+00
          0                 4           1             4    7     1      -0.6628756187E-04       5    8    1        -0.3794532050E-02      0.9257392810E-02

    ------------------------------------------------
       NWT REQUIRED            4 OUTER ITERATIONS 
       AND A TOTAL OF          7 INNER ITERATIONS.
    ------------------------------------------------

 NO OUTPUT CONTROL FOR STRESS PERIOD   42   TIME STEP   10
 
 SOLVING FOR HEAD 
                                                   Max.-Head-Change                         Max.-Flux-Residual
  Residual-Control   Outer-Iter.   Inner-Iter.     Column Row Layer    Maximum-Head-Change  Column Row Layer    Maximum-Flux-Residual          L2-NORM 
          0                 1           2             5    8     1       0.1527661963E-01       5    8    1         0.8177444219E+00      0.1960208601E+01
          0                 2           2             4    7     1      -0.2447622278E-01       5    8    1        -0.1326640081E+01      0.3235965368E+01
          0                 3           2             4    7     1       0.1666736473E-02       5    8    1         0.9286353735E-01      0.2265161175E+00
          0                 4           1             4    7     1      -0.6632102117E-04       5    8    1        -0.3798130044E-02      0.9264529069E-02

    ------------------------------------------------
       NWT REQUIRED            4 OUTER ITERATIONS 
       AND A TOTAL OF          7 INNER ITERATIONS.
    ------------------------------------------------

 NO OUTPUT CONTROL FOR STRESS PERIOD   42   TIME STEP   11
 
 SOLVING FOR HEAD 
                                                   Max.-Head-Change                         Max.-Flux-Residual
  Residual-Control   Outer-Iter.   Inner-Iter.     Column Row Layer    Maximum-Head-Change  Column Row Layer    Maximum-Flux-Residual          L2-NORM 
          0                 1           2             5    8     1       0.1549520236E-01       5    8    1         0.8296843527E+00      0.1980830296E+01
          0                 2           2             4    7     1      -0.2448870457E-01       5    8    1        -0.1327835285E+01      0.3238378600E+01
          0                 3           2             4    7     1       0.1667589220E-02       5    8    1         0.9294719899E-01      0.2266686847E+00
          0                 4           1             4    7     1      -0.6635764982E-04       5    8    1        -0.3801551821E-02      0.9276302207E-02

    ------------------------------------------------
       NWT REQUIRED            4 OUTER ITERATIONS 
       AND A TOTAL OF          7 INNER ITERATIONS.
    ------------------------------------------------

 NO OUTPUT CONTROL FOR STRESS PERIOD   42   TIME STEP   12
 
 SOLVING FOR HEAD 
                                                   Max.-Head-Change                         Max.-Flux-Residual
  Residual-Control   Outer-Iter.   Inner-Iter.     Column Row Layer    Maximum-Head-Change  Column Row Layer    Maximum-Flux-Residual          L2-NORM 
          0                 1           2             5    8     1       0.1570325109E-01       5    8    1         0.8410407726E+00      0.2001003908E+01
          0                 2           2             4    7     1      -0.2450126736E-01       5    8    1        -0.1328972137E+01      0.3240716217E+01
          0                 3           2             4    7     1       0.1668355102E-02       5    8    1         0.9302677614E-01      0.2266826066E+00
          0                 4           1             4    7     1      -0.6638542769E-04       5    8    1        -0.3804806555E-02      0.9271338221E-02

    ------------------------------------------------
       NWT REQUIRED            4 OUTER ITERATIONS 
       AND A TOTAL OF          7 INNER ITERATIONS.
    ------------------------------------------------

 NO OUTPUT CONTROL FOR STRESS PERIOD   42   TIME STEP   13
 
 SOLVING FOR HEAD 
                                                   Max.-Head-Change                         Max.-Flux-Residual
  Residual-Control   Outer-Iter.   Inner-Iter.     Column Row Layer    Maximum-Head-Change  Column Row Layer    Maximum-Flux-Residual          L2-NORM 
          0                 1           2             5    8     1       0.1590148622E-01       5    8    1         0.8518538242E+00      0.2020596158E+01
          0                 2           2             4    7     1      -0.2451388842E-01       5    8    1        -0.1330054651E+01      0.3242974471E+01
          0                 3           2             4    7     1       0.1669126919E-02       5    8    1         0.9310254982E-01      0.2266952744E+00
          0                 4           1             4    7     1      -0.6641613925E-04       5    8    1        -0.3807905741E-02      0.9271856236E-02

    ------------------------------------------------
       NWT REQUIRED            4 OUTER ITERATIONS 
       AND A TOTAL OF          7 INNER ITERATIONS.
    ------------------------------------------------

 NO OUTPUT CONTROL FOR STRESS PERIOD   42   TIME STEP   14
 
 SOLVING FOR HEAD 
                                                   Max.-Head-Change                         Max.-Flux-Residual
  Residual-Control   Outer-Iter.   Inner-Iter.     Column Row Layer    Maximum-Head-Change  Column Row Layer    Maximum-Flux-Residual          L2-NORM 
          0                 1           2             5    8     1       0.1609015521E-01       5    8    1         0.8621425434E+00      0.2039727722E+01
          0                 2           2             4    7     1      -0.2452672254E-01       5    8    1        -0.1331084613E+01      0.3245146330E+01
          0                 3           2             4    7     1       0.1670175444E-02       5    8    1         0.9317464546E-01      0.2271589311E+00
          0                 4           1             4    7     1      -0.6645786034E-04       5    8    1        -0.3810854425E-02      0.9290819710E-02

    ------------------------------------------------
       NWT REQUIRED            4 OUTER ITERATIONS 
       AND A TOTAL OF          7 INNER ITERATIONS.
    ------------------------------------------------

 NO OUTPUT CONTROL FOR STRESS PERIOD   42   TIME STEP   15
 
 SOLVING FOR HEAD 
                                                   Max.-Head-Change                         Max.-Flux-Residual
  Residual-Control   Outer-Iter.   Inner-Iter.     Column Row Layer    Maximum-Head-Change  Column Row Layer    Maximum-Flux-Residual          L2-NORM 
          0                 1           2             5    8     1       0.1627009260E-01       5    8    1         0.8719480047E+00      0.2058409950E+01
          0                 2           2             4    7     1      -0.2453940055E-01       5    8    1        -0.1332066366E+01      0.3247260461E+01
          0                 3           2             4    7     1       0.1671038775E-02       5    8    1         0.9324336615E-01      0.2273069183E+00
          0                 4           1             4    7     1      -0.6649221246E-04       5    8    1        -0.3813665117E-02      0.9296872442E-02

    ------------------------------------------------
       NWT REQUIRED            4 OUTER ITERATIONS 
       AND A TOTAL OF          7 INNER ITERATIONS.
    ------------------------------------------------

 NO OUTPUT CONTROL FOR STRESS PERIOD   42   TIME STEP   16
 
 SOLVING FOR HEAD 
                                                   Max.-Head-Change                         Max.-Flux-Residual
  Residual-Control   Outer-Iter.   Inner-Iter.     Column Row Layer    Maximum-Head-Change  Column Row Layer    Maximum-Flux-Residual          L2-NORM 
          0                 1           2             5    8     1       0.1644184206E-01       5    8    1         0.8813007620E+00      0.2076638648E+01
          0                 2           2             4    7     1      -0.2455206609E-01       5    8    1        -0.1333002730E+01      0.3249309983E+01
          0                 3           2             4    7     1       0.1671901257E-02       5    8    1         0.9330890963E-01      0.2274503837E+00
          0                 4           1             4    7     1      -0.6652653200E-04       5    8    1        -0.3816345861E-02      0.9302740159E-02

    ------------------------------------------------
       NWT REQUIRED            4 OUTER ITERATIONS 
       AND A TOTAL OF          7 INNER ITERATIONS.
    ------------------------------------------------

 NO OUTPUT CONTROL FOR STRESS PERIOD   42   TIME STEP   17
 
 SOLVING FOR HEAD 
                                                   Max.-Head-Change                         Max.-Flux-Residual
  Residual-Control   Outer-Iter.   Inner-Iter.     Column Row Layer    Maximum-Head-Change  Column Row Layer    Maximum-Flux-Residual          L2-NORM 
          0                 1           2             5    8     1       0.1660576746E-01       5    8    1         0.8902211527E+00      0.2094423003E+01
          0                 2           2             4    7     1      -0.2456473125E-01       5    8    1        -0.1333895856E+01      0.3251298275E+01
          0                 3           2             4    7     1       0.1672763711E-02       5    8    1         0.9337142661E-01      0.2275895634E+00
          0                 4           1             4    7     1      -0.6656084958E-04       5    8    1        -0.3818902798E-02      0.9308433069E-02

    ------------------------------------------------
       NWT REQUIRED            4 OUTER ITERATIONS 
       AND A TOTAL OF          7 INNER ITERATIONS.
    ------------------------------------------------

 NO OUTPUT CONTROL FOR STRESS PERIOD   42   TIME STEP   18
 
 SOLVING FOR HEAD 
                                                   Max.-Head-Change                         Max.-Flux-Residual
  Residual-Control   Outer-Iter.   Inner-Iter.     Column Row Layer    Maximum-Head-Change  Column Row Layer    Maximum-Flux-Residual          L2-NORM 
          0                 1           2             5    8     1       0.1676248649E-01       5    8    1         0.8987437230E+00      0.2111772898E+01
          0                 2           2             4    7     1      -0.2457736959E-01       5    8    1        -0.1334749318E+01      0.3253228384E+01
          0                 3           2             4    7     1       0.1673624339E-02       5    8    1         0.9343116725E-01      0.2277246694E+00
          0                 4           1             4    7     1      -0.6659509497E-04       5    8    1        -0.3821346214E-02      0.9313958840E-02

    ------------------------------------------------
       NWT REQUIRED            4 OUTER ITERATIONS 
       AND A TOTAL OF          7 INNER ITERATIONS.
    ------------------------------------------------

 NO OUTPUT CONTROL FOR STRESS PERIOD   42   TIME STEP   19
 
 SOLVING FOR HEAD 
                                                   Max.-Head-Change                         Max.-Flux-Residual
  Residual-Control   Outer-Iter.   Inner-Iter.     Column Row Layer    Maximum-Head-Change  Column Row Layer    Maximum-Flux-Residual          L2-NORM 
          0                 1           2             5    8     1       0.1691229762E-01       5    8    1         0.9068848244E+00      0.2128691398E+01
          0                 2           2             4    7     1      -0.2458994843E-01       5    8    1        -0.1335564514E+01      0.3255101230E+01
          0                 3           2             4    7     1       0.1674480913E-02       5    8    1         0.9348822935E-01      0.2278530095E+00
          0                 4           1             4    7     1      -0.6662917873E-04       5    8    1        -0.3823680061E-02      0.9319155658E-02

    ------------------------------------------------
       NWT REQUIRED            4 OUTER ITERATIONS 
       AND A TOTAL OF          7 INNER ITERATIONS.
    ------------------------------------------------

 NO OUTPUT CONTROL FOR STRESS PERIOD   42   TIME STEP   20
 
 SOLVING FOR HEAD 
                                                   Max.-Head-Change                         Max.-Flux-Residual
  Residual-Control   Outer-Iter.   Inner-Iter.     Column Row Layer    Maximum-Head-Change  Column Row Layer    Maximum-Flux-Residual          L2-NORM 
          0                 1           2             5    8     1       0.1705561127E-01       5    8    1         0.9146677654E+00      0.2145184913E+01
          0                 2           2             4    7     1      -0.2460248488E-01       5    8    1        -0.1336343893E+01      0.3256919514E+01
          0                 3           2             4    7     1       0.1675334601E-02       5    8    1         0.9354278435E-01      0.2279775159E+00
          0                 4           1             4    7     1      -0.6666314793E-04       5    8    1        -0.3825911382E-02      0.9324188639E-02

    ------------------------------------------------
       NWT REQUIRED            4 OUTER ITERATIONS 
       AND A TOTAL OF          7 INNER ITERATIONS.
    ------------------------------------------------

 NO OUTPUT CONTROL FOR STRESS PERIOD   42   TIME STEP   21
 
 SOLVING FOR HEAD 
                                                   Max.-Head-Change                         Max.-Flux-Residual
  Residual-Control   Outer-Iter.   Inner-Iter.     Column Row Layer    Maximum-Head-Change  Column Row Layer    Maximum-Flux-Residual          L2-NORM 
          0                 1           2             5    8     1       0.1719296117E-01       5    8    1         0.9221216644E+00      0.2161274555E+01
          0                 2           2             4    7     1      -0.2461493957E-01       5    8    1        -0.1337090367E+01      0.3258686225E+01
          0                 3           2             4    7     1       0.1676182721E-02       5    8    1         0.9359503610E-01      0.2280983784E+00
          0                 4           1             4    7     1      -0.6669689529E-04       5    8    1        -0.3828048482E-02      0.9329038508E-02

    ------------------------------------------------
       NWT REQUIRED            4 OUTER ITERATIONS 
       AND A TOTAL OF          7 INNER ITERATIONS.
    ------------------------------------------------

 NO OUTPUT CONTROL FOR STRESS PERIOD   42   TIME STEP   22
 
 SOLVING FOR HEAD 
                                                   Max.-Head-Change                         Max.-Flux-Residual
  Residual-Control   Outer-Iter.   Inner-Iter.     Column Row Layer    Maximum-Head-Change  Column Row Layer    Maximum-Flux-Residual          L2-NORM 
          0                 1           2             5    8     1       0.1732440940E-01       5    8    1         0.9292506815E+00      0.2176958639E+01
          0                 2           2             4    7     1      -0.2462732907E-01       5    8    1        -0.1337804352E+01      0.3260402299E+01
          0                 3           2             4    7     1       0.1677026401E-02       5    8    1         0.9364501372E-01      0.2282156805E+00
          0                 4           1             4    7     1      -0.6673046603E-04       5    8    1        -0.3830092569E-02      0.9333735316E-02

    ------------------------------------------------
       NWT REQUIRED            4 OUTER ITERATIONS 
       AND A TOTAL OF          7 INNER ITERATIONS.
    ------------------------------------------------

 NO OUTPUT CONTROL FOR STRESS PERIOD   42   TIME STEP   23
 
 SOLVING FOR HEAD 
                                                   Max.-Head-Change                         Max.-Flux-Residual
  Residual-Control   Outer-Iter.   Inner-Iter.     Column Row Layer    Maximum-Head-Change  Column Row Layer    Maximum-Flux-Residual          L2-NORM 
          0                 1           2             5    8     1       0.1745059044E-01       5    8    1         0.9360893868E+00      0.2192251188E+01
          0                 2           2             4    7     1      -0.2463961689E-01       5    8    1        -0.1338489306E+01      0.3262070059E+01
          0                 3           2             4    7     1       0.1677863155E-02       5    8    1         0.9369295921E-01      0.2283323848E+00
          0                 4           1             4    7     1      -0.6676376117E-04       5    8    1        -0.3832053549E-02      0.9338474193E-02

    ------------------------------------------------
       NWT REQUIRED            4 OUTER ITERATIONS 
       AND A TOTAL OF          7 INNER ITERATIONS.
    ------------------------------------------------

 NO OUTPUT CONTROL FOR STRESS PERIOD   42   TIME STEP   24
 
 SOLVING FOR HEAD 
                                                   Max.-Head-Change                         Max.-Flux-Residual
  Residual-Control   Outer-Iter.   Inner-Iter.     Column Row Layer    Maximum-Head-Change  Column Row Layer    Maximum-Flux-Residual          L2-NORM 
          0                 1           2             5    8     1       0.1757151738E-01       5    8    1         0.9426393247E+00      0.2207156905E+01
          0                 2           2             4    7     1      -0.2465180573E-01       5    8    1        -0.1339145263E+01      0.3263690560E+01
          0                 3           2             4    7     1       0.1678693170E-02       5    8    1         0.9373887502E-01      0.2284457919E+00
          0                 4           1             4    7     1      -0.6679678863E-04       5    8    1        -0.3833931518E-02      0.9343082000E-02

    ------------------------------------------------
       NWT REQUIRED            4 OUTER ITERATIONS 
       AND A TOTAL OF          7 INNER ITERATIONS.
    ------------------------------------------------

 NO OUTPUT CONTROL FOR STRESS PERIOD   42   TIME STEP   25
 
 SOLVING FOR HEAD 
                                                   Max.-Head-Change                         Max.-Flux-Residual
  Residual-Control   Outer-Iter.   Inner-Iter.     Column Row Layer    Maximum-Head-Change  Column Row Layer    Maximum-Flux-Residual          L2-NORM 
          0                 1           2             5    8     1       0.1768763606E-01       5    8    1         0.9489246837E+00      0.2221690953E+01
          0                 2           2             4    7     1      -0.2466389126E-01       5    8    1        -0.1339774882E+01      0.3265266612E+01
          0                 3           2             4    7     1       0.1679516148E-02       5    8    1         0.9378294713E-01      0.2285560990E+00
          0                 4           1             4    7     1      -0.6682953541E-04       5    8    1        -0.3835734081E-02      0.9347565745E-02

    ------------------------------------------------
       NWT REQUIRED            4 OUTER ITERATIONS 
       AND A TOTAL OF          7 INNER ITERATIONS.
    ------------------------------------------------

 NO OUTPUT CONTROL FOR STRESS PERIOD   42   TIME STEP   26
 
 SOLVING FOR HEAD 
                                                   Max.-Head-Change                         Max.-Flux-Residual
  Residual-Control   Outer-Iter.   Inner-Iter.     Column Row Layer    Maximum-Head-Change  Column Row Layer    Maximum-Flux-Residual          L2-NORM 
          0                 1           2             5    8     1       0.1779921875E-01       5    8    1         0.9549607508E+00      0.2235864282E+01
          0                 2           2             4    7     1      -0.2467586527E-01       5    8    1        -0.1340379570E+01      0.3266799648E+01
          0                 3           2             4    7     1       0.1680331532E-02       5    8    1         0.9382527426E-01      0.2286634027E+00
          0                 4           1             4    7     1      -0.6686198044E-04       5    8    1        -0.3837465255E-02      0.9351928924E-02

    ------------------------------------------------
       NWT REQUIRED            4 OUTER ITERATIONS 
       AND A TOTAL OF          7 INNER ITERATIONS.
    ------------------------------------------------

 NO OUTPUT CONTROL FOR STRESS PERIOD   42   TIME STEP   27
 
 SOLVING FOR HEAD 
                                                   Max.-Head-Change                         Max.-Flux-Residual
  Residual-Control   Outer-Iter.   Inner-Iter.     Column Row Layer    Maximum-Head-Change  Column Row Layer    Maximum-Flux-Residual          L2-NORM 
          0                 1           2             5    8     1       0.1790651709E-01       5    8    1         0.9607616359E+00      0.2249683164E+01
          0                 2           2             4    7     1      -0.2468770486E-01       5    8    1        -0.1340960621E+01      0.3268290218E+01
          0                 3           2             4    7     1       0.1681137763E-02       5    8    1         0.9386594677E-01      0.2287677426E+00
          0                 4           1             4    7     1      -0.6689406143E-04       5    8    1        -0.3839128761E-02      0.9356173926E-02

    ------------------------------------------------
       NWT REQUIRED            4 OUTER ITERATIONS 
       AND A TOTAL OF          7 INNER ITERATIONS.
    ------------------------------------------------

 NO OUTPUT CONTROL FOR STRESS PERIOD   42   TIME STEP   28
 
 SOLVING FOR HEAD 
                                                   Max.-Head-Change                         Max.-Flux-Residual
  Residual-Control   Outer-Iter.   Inner-Iter.     Column Row Layer    Maximum-Head-Change  Column Row Layer    Maximum-Flux-Residual          L2-NORM 
          0                 1           2             5    8     1       0.1800963216E-01       5    8    1         0.9663325473E+00      0.2263163514E+01
          0                 2           2             4    7     1      -0.2469943689E-01       5    8    1        -0.1341518793E+01      0.3269741757E+01
          0                 3           2             4    7     1       0.1681936668E-02       5    8    1         0.9390501785E-01      0.2288693562E+00
          0                 4           1             4    7     1      -0.6692585047E-04       5    8    1        -0.3840726802E-02      0.9360309302E-02

    ------------------------------------------------
       NWT REQUIRED            4 OUTER ITERATIONS 
       AND A TOTAL OF          7 INNER ITERATIONS.
    ------------------------------------------------

 NO OUTPUT CONTROL FOR STRESS PERIOD   42   TIME STEP   29
 
 SOLVING FOR HEAD 
                                                   Max.-Head-Change                         Max.-Flux-Residual
  Residual-Control   Outer-Iter.   Inner-Iter.     Column Row Layer    Maximum-Head-Change  Column Row Layer    Maximum-Flux-Residual          L2-NORM 
          0                 1           2             5    8     1       0.1810892933E-01       5    8    1         0.9716944065E+00      0.2276308051E+01
          0                 2           2             4    7     1      -0.2471102420E-01       5    8    1        -0.1342055940E+01      0.3271153703E+01
          0                 3           2             4    7     1       0.1682725717E-02       5    8    1         0.9394261724E-01      0.2289682033E+00
          0                 4           1             4    7     1      -0.6695724726E-04       5    8    1        -0.3842264608E-02      0.9364334019E-02

    ------------------------------------------------
       NWT REQUIRED            4 OUTER ITERATIONS 
       AND A TOTAL OF          7 INNER ITERATIONS.
    ------------------------------------------------

 NO OUTPUT CONTROL FOR STRESS PERIOD   42   TIME STEP   30



 STREAM LISTING     PERIOD     42   STEP       30

 LAYER ROW COL. STREAM  RCH.  FLOW INTO     FLOW TO   FLOW OUT OF   OVRLND.     DIRECT     STREAM       STREAM     STREAM     STREAM   STREAMBED  STREAMBED
                SEG.NO.  NO.  STRM. RCH.    AQUIFER    STRM. RCH.    RUNOFF     PRECIP       ET          HEAD       DEPTH      WIDTH   CONDCTNC.   GRADIENT

   1    1    1     1     1    1.9000E+01  2.1427E-01   1.8786E+01  0.000E+00  0.000E+00  0.000E+00  1.09413E+03  1.082E+00  1.166E+01  5.249E-02  1.361E+00
   1    2    2     1     2    1.8786E+01  3.3054E-01   1.8455E+01  0.000E+00  0.000E+00  0.000E+00  1.08914E+03  1.077E+00  1.158E+01  8.107E-02  1.359E+00
   1    3    3     1     3    1.8455E+01  2.8064E-01   1.8175E+01  0.000E+00  0.000E+00  0.000E+00  1.08349E+03  1.072E+00  1.149E+01  6.892E-02  1.357E+00
   1    3    4     1     4    1.8175E+01  2.5740E-01   1.7917E+01  0.000E+00  0.000E+00  0.000E+00  1.07848E+03  1.068E+00  1.140E+01  6.328E-02  1.356E+00
   1    4    5     2     1    1.5917E+01  3.0542E-01   1.5612E+01  0.000E+00  0.000E+00  0.000E+00  1.07285E+03  9.157E-01  1.200E+01  7.800E-02  1.305E+00
   1    5    6     2     2    1.5612E+01  2.3438E-01   1.5377E+01  0.000E+00  0.000E+00  0.000E+00  1.06742E+03  9.063E-01  1.200E+01  6.000E-02  1.302E+00
   1    6    6     2     3    1.5377E+01  2.3388E-01   1.5143E+01  0.000E+00  0.000E+00  0.000E+00  1.06269E+03  8.980E-01  1.200E+01  6.000E-02  1.299E+00
   1    7    6     2     4    1.5143E+01  2.3338E-01   1.4910E+01  0.000E+00  0.000E+00  0.000E+00  1.05797E+03  8.897E-01  1.200E+01  6.000E-02  1.297E+00
   1    8    6     2     5    1.4910E+01  2.3289E-01   1.4677E+01  0.000E+00  0.000E+00  0.000E+00  1.05324E+03  8.814E-01  1.200E+01  6.000E-02  1.294E+00
   1    3    5     3     1    2.0000E+00  2.8252E-01   1.7175E+00  0.000E+00  0.000E+00  0.000E+00  1.07555E+03  1.909E+00  9.636E+00  7.227E-02  1.955E+00
   1    3    6     3     2    1.7175E+00  2.4905E-01   1.4684E+00  0.000E+00  0.000E+00  0.000E+00  1.07264E+03  1.727E+00  8.909E+00  6.682E-02  1.864E+00
   1    3    7     3     3    1.4684E+00  1.9718E-01   1.2712E+00  0.000E+00  0.000E+00  0.000E+00  1.06987E+03  1.555E+00  8.218E+00  5.547E-02  1.777E+00
   1    4    8     3     4    1.2712E+00  2.2567E-01   1.0456E+00  0.000E+00  0.000E+00  0.000E+00  1.06682E+03  1.364E+00  7.455E+00  6.709E-02  1.682E+00
   1    5    8     3     5    1.0456E+00  1.5790E-01   8.8768E-01  0.000E+00  0.000E+00  0.000E+00  1.06362E+03  1.164E+00  6.655E+00  4.991E-02  1.582E+00
   1    6    8     3     6    8.8768E-01  5.5980E-02   8.3170E-01  0.000E+00  0.000E+00  0.000E+00  1.06158E+03  1.036E+00  6.145E+00  1.844E-02  1.518E+00
   1    5   10     4     1    1.0000E+01  9.0919E-02   9.9091E+00  0.000E+00  0.000E+00  0.000E+00  1.07836E+03  6.368E-01  1.000E+01  2.500E-02  1.212E+00
   1    5    9     4     2    9.9091E+00  1.8158E-01   9.7275E+00  0.000E+00  0.000E+00  0.000E+00  1.07154E+03  6.315E-01  1.000E+01  5.000E-02  1.211E+00
   1    6    8     4     3    9.7275E+00  1.2689E-01   9.6006E+00  0.000E+00  0.000E+00  0.000E+00  1.06381E+03  6.256E-01  1.000E+01  3.500E-02  1.209E+00
   1    6    8     5     1    1.0432E+01  2.2686E-01   1.0205E+01  0.000E+00  0.000E+00  0.000E+00  1.05868E+03  6.790E-01  1.542E+01  6.166E-02  1.226E+00
   1    7    7     5     2    1.0205E+01  2.7894E-01   9.9265E+00  0.000E+00  0.000E+00  0.000E+00  1.05417E+03  6.732E-01  1.519E+01  7.594E-02  1.224E+00
   1    8    7     5     3    9.9265E+00  1.9221E-01   9.7343E+00  0.000E+00  0.000E+00  0.000E+00  1.04992E+03  6.676E-01  1.497E+01  5.241E-02  1.223E+00
   1    8    6     5     4    9.7343E+00  1.3577E-01   9.5985E+00  0.000E+00  0.000E+00  0.000E+00  1.04691E+03  6.637E-01  1.482E+01  3.706E-02  1.221E+00
   1    9    6     6     1    2.4276E+01  2.5176E-01   2.4024E+01  0.000E+00  0.000E+00  0.000E+00  1.04392E+03  1.196E+00  1.200E+01  6.000E-02  1.399E+00
   1   10    7     6     2    2.4024E+01  2.5131E-01   2.3773E+01  0.000E+00  0.000E+00  0.000E+00  1.03937E+03  1.188E+00  1.200E+01  6.000E-02  1.396E+00
   1   11    7     6     3    2.3773E+01  2.5086E-01   2.3522E+01  0.000E+00  0.000E+00  0.000E+00  1.03482E+03  1.181E+00  1.200E+01  6.000E-02  1.394E+00
   1   12    7     6     4    2.3522E+01  2.5041E-01   2.3271E+01  0.000E+00  0.000E+00  0.000E+00  1.03026E+03  1.173E+00  1.200E+01  6.000E-02  1.391E+00
   1   13    7     6     5    2.3271E+01  1.0940E-02   2.3260E+01  0.000E+00  0.000E+00  0.000E+00  1.02708E+03  1.170E+00  1.200E+01  2.400E-02  1.519E-01
   1   14    9     7     1    1.5000E+02  1.3695E+00   1.4863E+02  0.000E+00  0.000E+00  0.000E+00  1.03987E+03  2.288E+00  5.529E+01  5.593E-01  8.162E-01
   1   13    8     7     2    1.4863E+02  1.9683E+00   1.4666E+02  0.000E+00  0.000E+00  0.000E+00  1.03478E+03  2.279E+00  5.525E+01  6.147E-01  1.067E+00
   1   13    7     7     3    1.4666E+02  1.7117E+00   1.4495E+02  0.000E+00  0.000E+00  0.000E+00  1.02969E+03  2.269E+00  5.521E+01  5.584E-01  1.022E+00
   1   13    6     8     1    1.6821E+02  1.1468E+00   1.6706E+02  0.000E+00  0.000E+00  0.000E+00  1.02481E+03  2.937E+00  4.258E+01  4.339E-01  8.809E-01
   1   13    5     8     2    1.6706E+02  3.8341E-01   1.6668E+02  0.000E+00  0.000E+00  0.000E+00  1.01856E+03  2.932E+00  4.251E+01  4.332E-01  2.950E-01
   1   13    4     8     3    1.6668E+02 -1.7420E+00   1.6842E+02  0.000E+00  0.000E+00  0.000E+00  1.01231E+03  2.936E+00  4.257E+01  4.339E+00 -1.338E-01
   1   13    3     8     4    1.6842E+02 -3.3073E+00   1.7173E+02  0.000E+00  0.000E+00  0.000E+00  1.00608E+03  2.953E+00  4.281E+01  4.363E+00 -2.527E-01
   1   13    2     8     5    1.7173E+02 -2.4928E+00   1.7422E+02  0.000E+00  0.000E+00  0.000E+00  9.99846E+02  2.971E+00  4.309E+01  4.391E+00 -1.892E-01
   1   13    1     8     6    1.7422E+02 -1.9607E+00   1.7618E+02  0.000E+00  0.000E+00  0.000E+00  9.94861E+02  2.986E+00  4.329E+01  2.647E+00 -2.469E-01





UNSATURATED ZONE PACKAGE VOLUMETRIC BUDGET FOR  TIME STEP    30 STRESS PERIOD   42
  ------------------------------------------------------------------------------



     CUMULATIVE VOLUMES      L**3       RATES FOR THIS TIME STEP      L**3/T
     ------------------                 ------------------------

           IN:                                      IN:
           ---                                      ---
        INFILTRATION =  1332589886.4533          INFILTRATION =           8.3168

          OUT:                                     OUT:
          ----                                     ----
              UZF ET =  1331731199.5482                UZF ET =           8.3175
        UZF RECHARGE =       73224.0000          UZF RECHARGE =       0.0000E+00

            IN - OUT =      785462.9051              IN - OUT =      -6.8593E-04

          STORAGE:                                 STORAGE:
          --------                                 --------
      STORAGE CHANGE =      785454.0764        STORAGE CHANGE =      -6.8586E-04

 PERCENT DISCREPANCY IS DIFFERENCE BETWEEN IN-OUT MINUS CHANGE IN STORAGE
 DIVIDED BY THE AVERAGE OF IN AND OUT TIMES 100

 PERCENT DISCREPANCY =           0.00     PERCENT DISCREPANCY =           0.00






1
  VOLUMETRIC BUDGET FOR AGRICULTURAL FIELDS AT  END OF TIME STEP   30, STRESS PERIOD  42
  ------------------------------------------------------------------------------

     CUMULATIVE VOLUMES      L**3       RATES FOR THIS TIME STEP      L**3/T
     ------------------                 ------------------------

           IN:                                      IN:
           ---                                      ---
               AG WELLS  =  1241126528.0000                 AG WELLS  =           7.4693
      DIVERSION SEGMENTS =           0.0000        DIVERSION SEGMENTS =           0.0000
       IRRIGATION PONDS  =           0.0000         IRRIGATION PONDS  =           0.0000
           GW IRRIGATION =           0.0000             GW IRRIGATION =           0.0000
           SW IRRIGATION =           0.0000             SW IRRIGATION =           0.0000
        SYSTEM LOSSES GW =           0.0000          SYSTEM LOSSES GW =           0.0000
        SYSTEM LOSSES SW =           0.0000          SYSTEM LOSSES SW =           0.0000

                TOTAL IN =  1241126528.0000                  TOTAL IN =           7.4693

          OUT:                                     OUT:
          ----                                     ----
               AG WELLS  =           0.0000                 AG WELLS  =           0.0000
      DIVERSION SEGMENTS =           0.0000        DIVERSION SEGMENTS =           0.0000
       IRRIGATION PONDS  =           0.0000         IRRIGATION PONDS  =           0.0000
           GW IRRIGATION =  1241126528.0000             GW IRRIGATION =           7.4693
           SW IRRIGATION =           0.0000             SW IRRIGATION =           0.0000
        SYSTEM LOSSES GW =           0.0000          SYSTEM LOSSES GW =           0.0000
        SYSTEM LOSSES SW =           0.0000          SYSTEM LOSSES SW =           0.0000

               TOTAL OUT =  1241126528.0000                 TOTAL OUT =           7.4693

                IN - OUT =           0.0000                  IN - OUT =           0.0000

     PERCENT DISCREPANCY =           0.00         PERCENT DISCREPANCY =           0.00



1
  VOLUMETRIC BUDGET FOR ENTIRE MODEL AT END OF TIME STEP   30, STRESS PERIOD  42
  ------------------------------------------------------------------------------

     CUMULATIVE VOLUMES      L**3       RATES FOR THIS TIME STEP      L**3/T
     ------------------                 ------------------------

           IN:                                      IN:
           ---                                      ---
             STORAGE     =  1725252096.0000               STORAGE     =           5.4527
       CONSTANT HEAD     =           0.0000         CONSTANT HEAD     =           0.0000
     HEAD DEP BOUNDS     =    30871754.0000       HEAD DEP BOUNDS     =           0.2881
      STREAM LEAKAGE     =  1321715072.0000        STREAM LEAKAGE     =          12.3193
        UZF RECHARGE     =       73223.9531          UZF RECHARGE     =           0.0000
               GW ET     =           0.0000                 GW ET     =           0.0000
     SURFACE LEAKAGE     =           0.0000       SURFACE LEAKAGE     =           0.0000
           AG WELLS      =           0.0000             AG WELLS      =           0.0000

                TOTAL IN =  3077912064.0000                  TOTAL IN =          18.0601

          OUT:                                     OUT:
          ----                                     ----
             STORAGE     =   690315200.0000               STORAGE     =           0.7987
       CONSTANT HEAD     =           0.0000         CONSTANT HEAD     =           0.0000
     HEAD DEP BOUNDS     =    31512524.0000       HEAD DEP BOUNDS     =           0.2889
      STREAM LEAKAGE     =  1097358592.0000        STREAM LEAKAGE     =           9.5029
        UZF RECHARGE     =           0.0000          UZF RECHARGE     =           0.0000
               GW ET     =    17603406.0000                 GW ET     =           0.0000
     SURFACE LEAKAGE     =           0.0000       SURFACE LEAKAGE     =           0.0000
           AG WELLS      =  1241126528.0000             AG WELLS      =           7.4693

               TOTAL OUT =  3077916160.0000                 TOTAL OUT =          18.0598

                IN - OUT =       -4096.0000                  IN - OUT =       3.0136E-04

     PERCENT DISCREPANCY =          -0.00         PERCENT DISCREPANCY =           0.00






         TIME SUMMARY AT END OF TIME STEP   30 IN STRESS PERIOD   42
                    SECONDS     MINUTES      HOURS       DAYS        YEARS
                    -----------------------------------------------------------
   TIME STEP LENGTH  87667.      1461.1      24.352      1.0147     2.77799E-03
 STRESS PERIOD TIME 2.63000E+06  43833.      730.56      30.440     8.33397E-02
         TOTAL TIME 1.07916E+08 1.79859E+06  29977.      1249.0      3.4196    
1
1
                            STRESS PERIOD NO.   43, LENGTH =   2630000.    
                            -----------------------------------------------

                              NUMBER OF TIME STEPS =    30

                               MULTIPLIER FOR DELT =     1.000

                            INITIAL TIME STEP SIZE =   87666.66    

 REUSING NON-PARAMETER GHB CELLS FROM LAST STRESS PERIOD

      2 GHB CELLS

 REUSING STREAM SEGMENT DATA FROM LAST STRESS PERIOD



            AREAL INFILTRATION RATE
 READING ON UNIT   19 WITH FORMAT: (FREE)              

            1           2           3           4           5           6           7           8           9          10
 ........................................................................................................................
   1   1.0000E-10  2.0000E-10   0.000       0.000       0.000       0.000       0.000       0.000       0.000       0.000    
   2   2.0000E-10  1.0000E-10  2.0000E-10   0.000       0.000      8.0000E-10  8.0000E-10  5.0000E-10   0.000       0.000    
   3    0.000      5.0000E-10  1.0000E-10  1.0000E-10  8.0000E-10  8.0000E-10  5.0000E-10  5.0000E-10   0.000       0.000    
   4   8.0000E-10  5.0000E-10  1.0000E-10  1.0000E-10  1.0000E-10  1.0000E-10  1.0000E-10  1.0000E-10  2.0000E-10   0.000    
   5   8.0000E-10  5.0000E-10  1.0000E-10  1.0000E-10  1.0000E-10  1.0000E-10  1.0000E-10  1.0000E-10  1.0000E-10  1.0000E-10
   6   8.0000E-10  5.0000E-10  5.0000E-10  2.0000E-10  2.0000E-10  1.0000E-10  1.0000E-10  1.0000E-10  1.0000E-10  5.0000E-10
   7   8.0000E-10  5.0000E-10  5.0000E-10  2.0000E-10  2.0000E-10  1.0000E-10  1.0000E-10  2.0000E-10  2.0000E-10   0.000    
   8    0.000      5.0000E-10  5.0000E-10  2.0000E-10  2.0000E-10  1.0000E-10  1.0000E-10  2.0000E-10  5.0000E-10   0.000    
   9    0.000      5.0000E-10  5.0000E-10  2.0000E-10  2.0000E-10  1.0000E-10  1.0000E-10  2.0000E-10  5.0000E-10   0.000    
  10    0.000      5.0000E-10  5.0000E-10  2.0000E-10  2.0000E-10  1.0000E-10  1.0000E-10  2.0000E-10  5.0000E-10  8.0000E-10
  11    0.000      1.0000E-10  1.0000E-10  1.0000E-10  1.0000E-10  1.0000E-10  1.0000E-10  2.0000E-10  5.0000E-10   0.000    
  12   1.0000E-10  1.0000E-10  1.0000E-10  1.0000E-10  1.0000E-10  1.0000E-10  1.0000E-10  1.0000E-10  2.0000E-10   0.000    
  13   1.0000E-10  1.0000E-10  2.0000E-10  2.0000E-10  2.0000E-10  2.0000E-10  2.0000E-10  1.0000E-10  1.0000E-10   0.000    
  14    0.000      2.0000E-10  5.0000E-10  5.0000E-10  5.0000E-10  5.0000E-10  5.0000E-10  2.0000E-10  1.0000E-10   0.000    
  15    0.000       0.000      8.0000E-10  8.0000E-10  8.0000E-10  8.0000E-10   0.000       0.000       0.000       0.000    

                  ET RATE =  1.500000E-07

 USING ET EXTINCTION DEPTH FROM PREVIOUS STRESS PERIOD. CURRENT PERIOD IS:      43

 USING EXTINCTION WATER CONTENT FROM PREVIOUS STRESS PERIOD. CURRENT PERIOD IS:      43

 USING AIR ENTRY PRESSURE FROM PREVIOUS STRESS PERIOD. CURRENT PERIOD IS:      43

 USING ROOT PRESSURE HEAD FROM PREVIOUS STRESS PERIOD. CURRENT PERIOD IS:      43

 USING ROOT ACTIVITY FROM PREVIOUS STRESS PERIOD. CURRENT PERIOD IS:      43

 PROCESSING AG STRESS PERIOD DATA

 READING AG STRESS PERIOD DATA

 READING IRRIGATION WELL

 NO IRRPOND OR REUSING IRRPOND DATA FROM LAST STRESS PERIOD

 END PROCESSING AG STRESS PERIOD DATA OPTIONS
 
 SOLVING FOR HEAD 
                                                   Max.-Head-Change                         Max.-Flux-Residual
  Residual-Control   Outer-Iter.   Inner-Iter.     Column Row Layer    Maximum-Head-Change  Column Row Layer    Maximum-Flux-Residual          L2-NORM 
          0                 1           2             4    7     1      -0.5612139732E-01       4    7    1        -0.2934042833E+01      0.6977846500E+01
          0                 2           2             4    7     1       0.5459052500E-02       4    7    1         0.2934024836E+00      0.6977773543E+00
          0                 3           2             4    7     1      -0.3717414784E-03       4    7    1        -0.2053819750E-01      0.4884449300E-01
          0                 4           1             4    7     1       0.1479193982E-04       4    7    1         0.8400133759E-03      0.1997742013E-02

    ------------------------------------------------
       NWT REQUIRED            4 OUTER ITERATIONS 
       AND A TOTAL OF          7 INNER ITERATIONS.
    ------------------------------------------------

 NO OUTPUT CONTROL FOR STRESS PERIOD   43   TIME STEP    1
 
 SOLVING FOR HEAD 
                                                   Max.-Head-Change                         Max.-Flux-Residual
  Residual-Control   Outer-Iter.   Inner-Iter.     Column Row Layer    Maximum-Head-Change  Column Row Layer    Maximum-Flux-Residual          L2-NORM 
          0                 1           2             5    8     1       0.1960481744E-01       5    8    1         0.1053852258E+01      0.2419940076E+01
          0                 2           2             4    7     1      -0.7133799826E-01       5    8    1        -0.3850272736E+01      0.9408679801E+01
          0                 3           2             4    7     1       0.4857819201E-02       5    8    1         0.2694625184E+00      0.6585404874E+00
          0                 4           2             4    7     1      -0.1932973115E-03       5    8    1        -0.1101666753E-01      0.2693272761E-01
          0                 5           1             4    7     1       0.2383439579E-05       5    8    1         0.1393152477E-03      0.3423214593E-03

    ------------------------------------------------
       NWT REQUIRED            5 OUTER ITERATIONS 
       AND A TOTAL OF          9 INNER ITERATIONS.
    ------------------------------------------------

 NO OUTPUT CONTROL FOR STRESS PERIOD   43   TIME STEP    2
 
 SOLVING FOR HEAD 
                                                   Max.-Head-Change                         Max.-Flux-Residual
  Residual-Control   Outer-Iter.   Inner-Iter.     Column Row Layer    Maximum-Head-Change  Column Row Layer    Maximum-Flux-Residual          L2-NORM 
          0                 1           2             5    8     1       0.2092661057E-01       5    8    1         0.1126470940E+01      0.2549708644E+01
          0                 2           2             4    7     1      -0.7137547377E-01       5    8    1        -0.3857535248E+01      0.9420938572E+01
          0                 3           2             4    7     1       0.4860371441E-02       5    8    1         0.2699738223E+00      0.6593982185E+00
          0                 4           2             4    7     1      -0.1933988660E-03       5    8    1        -0.1103786949E-01      0.2696727567E-01
          0                 5           1             4    7     1       0.2384691793E-05       5    8    1         0.1396035791E-03      0.3425711632E-03

    ------------------------------------------------
       NWT REQUIRED            5 OUTER ITERATIONS 
       AND A TOTAL OF          9 INNER ITERATIONS.
    ------------------------------------------------

 NO OUTPUT CONTROL FOR STRESS PERIOD   43   TIME STEP    3
 
 SOLVING FOR HEAD 
                                                   Max.-Head-Change                         Max.-Flux-Residual
  Residual-Control   Outer-Iter.   Inner-Iter.     Column Row Layer    Maximum-Head-Change  Column Row Layer    Maximum-Flux-Residual          L2-NORM 
          0                 1           2             5    8     1       0.2217767282E-01       5    8    1         0.1195143736E+01      0.2677677086E+01
          0                 2           2             4    7     1      -0.7141450900E-01       5    8    1        -0.3864402932E+01      0.9432792271E+01
          0                 3           2             4    7     1       0.4863029867E-02       5    8    1         0.2704572897E+00      0.6602282107E+00
          0                 4           2             4    7     1      -0.1935046462E-03       5    8    1        -0.1105791330E-01      0.2700081171E-01
          0                 5           1             4    7     1       0.2385996094E-05       5    8    1         0.1398759234E-03      0.3428369341E-03

    ------------------------------------------------
       NWT REQUIRED            5 OUTER ITERATIONS 
       AND A TOTAL OF          9 INNER ITERATIONS.
    ------------------------------------------------

 NO OUTPUT CONTROL FOR STRESS PERIOD   43   TIME STEP    4
 
 SOLVING FOR HEAD 
                                                   Max.-Head-Change                         Max.-Flux-Residual
  Residual-Control   Outer-Iter.   Inner-Iter.     Column Row Layer    Maximum-Head-Change  Column Row Layer    Maximum-Flux-Residual          L2-NORM 
          0                 1           2             5    8     1       0.2336295694E-01       5    8    1         0.1260149522E+01      0.2803183690E+01
          0                 2           2             4    7     1      -0.7145494978E-01       5    8    1        -0.3870904152E+01      0.9444260374E+01
          0                 3           2             4    7     1       0.4865788713E-02       5    8    1         0.2718089363E+00      0.6613973611E+00
          0                 4           2             4    7     1      -0.1936144161E-03       5    8    1        -0.1111355213E-01      0.2704802956E-01
          0                 5           1             4    7     1       0.2387349681E-05       5    8    1         0.1406082777E-03      0.3432657437E-03

    ------------------------------------------------
       NWT REQUIRED            5 OUTER ITERATIONS 
       AND A TOTAL OF          9 INNER ITERATIONS.
    ------------------------------------------------

 NO OUTPUT CONTROL FOR STRESS PERIOD   43   TIME STEP    5
 
 SOLVING FOR HEAD 
                                                   Max.-Head-Change                         Max.-Flux-Residual
  Residual-Control   Outer-Iter.   Inner-Iter.     Column Row Layer    Maximum-Head-Change  Column Row Layer    Maximum-Flux-Residual          L2-NORM 
          0                 1           2             5    8     1       0.2447033572E-01       5    8    1         0.1322304182E+01      0.2926085531E+01
          0                 2           2             4    7     1      -0.7149663169E-01       5    8    1        -0.3876097470E+01      0.9454961172E+01
          0                 3           2             4    7     1       0.4868645308E-02       5    8    1         0.2744445425E+00      0.6630909521E+00
          0                 4           2             4    7     1      -0.1937280777E-03       5    8    1        -0.1122256087E-01      0.2711719332E-01
          0                 5           1             4    7     1       0.2388751099E-05       5    8    1         0.1420720391E-03      0.3439805118E-03

    ------------------------------------------------
       NWT REQUIRED            5 OUTER ITERATIONS 
       AND A TOTAL OF          9 INNER ITERATIONS.
    ------------------------------------------------

 NO OUTPUT CONTROL FOR STRESS PERIOD   43   TIME STEP    6
 
 SOLVING FOR HEAD 
                                                   Max.-Head-Change                         Max.-Flux-Residual
  Residual-Control   Outer-Iter.   Inner-Iter.     Column Row Layer    Maximum-Head-Change  Column Row Layer    Maximum-Flux-Residual          L2-NORM 
          0                 1           2             5    8     1       0.2557206851E-01       5    8    1         0.1382757858E+01      0.3046625993E+01
          0                 2           2             4    7     1      -0.7153940227E-01       5    8    1        -0.3883164344E+01      0.9466212364E+01
          0                 3           2             4    7     1       0.4871537461E-02       5    8    1         0.2717846500E+00      0.6625738942E+00
          0                 4           2             4    7     1      -0.1938431583E-03       5    8    1        -0.1111259031E-01      0.2709573202E-01
          0                 5           1             4    7     1       0.2390170215E-05       5    8    1         0.1405982371E-03      0.3437257679E-03

    ------------------------------------------------
       NWT REQUIRED            5 OUTER ITERATIONS 
       AND A TOTAL OF          9 INNER ITERATIONS.
    ------------------------------------------------

 NO OUTPUT CONTROL FOR STRESS PERIOD   43   TIME STEP    7
 
 SOLVING FOR HEAD 
                                                   Max.-Head-Change                         Max.-Flux-Residual
  Residual-Control   Outer-Iter.   Inner-Iter.     Column Row Layer    Maximum-Head-Change  Column Row Layer    Maximum-Flux-Residual          L2-NORM 
          0                 1           2             5    8     1       0.2661647695E-01       5    8    1         0.1440014979E+01      0.3163775897E+01
          0                 2           2             4    7     1      -0.7158318538E-01       5    8    1        -0.3888890516E+01      0.9476698746E+01
          0                 3           2             4    7     1       0.4874519124E-02       5    8    1         0.2721877372E+00      0.6633099172E+00
          0                 4           2             4    7     1      -0.1939618002E-03       5    8    1        -0.1112929535E-01      0.2712575060E-01
          0                 5           1             4    7     1       0.2391632793E-05       5    8    1         0.1408247965E-03      0.3440202945E-03

    ------------------------------------------------
       NWT REQUIRED            5 OUTER ITERATIONS 
       AND A TOTAL OF          9 INNER ITERATIONS.
    ------------------------------------------------

 NO OUTPUT CONTROL FOR STRESS PERIOD   43   TIME STEP    8
 
 SOLVING FOR HEAD 
                                                   Max.-Head-Change                         Max.-Flux-Residual
  Residual-Control   Outer-Iter.   Inner-Iter.     Column Row Layer    Maximum-Head-Change  Column Row Layer    Maximum-Flux-Residual          L2-NORM 
          0                 1           2             5    8     1       0.2760713191E-01       5    8    1         0.1494276343E+01      0.3277455520E+01
          0                 2           2             4    7     1      -0.7162781235E-01       5    8    1        -0.3894316871E+01      0.9486853711E+01
          0                 3           2             4    7     1       0.4877558230E-02       5    8    1         0.2725696848E+00      0.6640229849E+00
          0                 4           2             4    7     1      -0.1940827282E-03       5    8    1        -0.1114512096E-01      0.2715488964E-01
          0                 5           1             4    7     1       0.2393123934E-05       5    8    1         0.1410392113E-03      0.3443117923E-03

    ------------------------------------------------
       NWT REQUIRED            5 OUTER ITERATIONS 
       AND A TOTAL OF          9 INNER ITERATIONS.
    ------------------------------------------------

 NO OUTPUT CONTROL FOR STRESS PERIOD   43   TIME STEP    9
 
 SOLVING FOR HEAD 
                                                   Max.-Head-Change                         Max.-Flux-Residual
  Residual-Control   Outer-Iter.   Inner-Iter.     Column Row Layer    Maximum-Head-Change  Column Row Layer    Maximum-Flux-Residual          L2-NORM 
          0                 1           2             5    8     1       0.2854801659E-01       5    8    1         0.1545766240E+01      0.3387668672E+01
          0                 2           2             4    7     1      -0.7167320087E-01       5    8    1        -0.3899466316E+01      0.9496693619E+01
          0                 3           2             4    7     1       0.4880649178E-02       5    8    1         0.2729321086E+00      0.6647141905E+00
          0                 4           2             4    7     1      -0.1942057196E-03       5    8    1        -0.1116013439E-01      0.2718318389E-01
          0                 5           1             4    7     1       0.2394640615E-05       5    8    1         0.1412423956E-03      0.3446085049E-03

    ------------------------------------------------
       NWT REQUIRED            5 OUTER ITERATIONS 
       AND A TOTAL OF          9 INNER ITERATIONS.
    ------------------------------------------------

 NO OUTPUT CONTROL FOR STRESS PERIOD   43   TIME STEP   10
 
 SOLVING FOR HEAD 
                                                   Max.-Head-Change                         Max.-Flux-Residual
  Residual-Control   Outer-Iter.   Inner-Iter.     Column Row Layer    Maximum-Head-Change  Column Row Layer    Maximum-Flux-Residual          L2-NORM 
          0                 1           2             5    8     1       0.2944225102E-01       5    8    1         0.1594659882E+01      0.3494433039E+01
          0                 2           2             4    7     1      -0.7171920524E-01       5    8    1        -0.3904355896E+01      0.9506229832E+01
          0                 3           2             4    7     1       0.4883782046E-02       5    8    1         0.2732762112E+00      0.6653842822E+00
          0                 4           2             4    7     1      -0.1943303784E-03       5    8    1        -0.1117438580E-01      0.2721065766E-01
          0                 5           1             4    7     1       0.2396177347E-05       5    8    1         0.1414350672E-03      0.3449066974E-03

    ------------------------------------------------
       NWT REQUIRED            5 OUTER ITERATIONS 
       AND A TOTAL OF          9 INNER ITERATIONS.
    ------------------------------------------------

 NO OUTPUT CONTROL FOR STRESS PERIOD   43   TIME STEP   11
 
 SOLVING FOR HEAD 
                                                   Max.-Head-Change                         Max.-Flux-Residual
  Residual-Control   Outer-Iter.   Inner-Iter.     Column Row Layer    Maximum-Head-Change  Column Row Layer    Maximum-Flux-Residual          L2-NORM 
          0                 1           2             5    8     1       0.3029284563E-01       5    8    1         0.1641126860E+01      0.3597809455E+01
          0                 2           2             4    7     1      -0.7176574504E-01       5    8    1        -0.3909003045E+01      0.9515476110E+01
          0                 3           2             4    7     1       0.4886951360E-02       5    8    1         0.2736032229E+00      0.6660341858E+00
          0                 4           2             4    7     1      -0.1944564873E-03       5    8    1        -0.1118792646E-01      0.2723734076E-01
          0                 5           1             4    7     1       0.2397732673E-05       5    8    1         0.1416179259E-03      0.3452070327E-03

    ------------------------------------------------
       NWT REQUIRED            5 OUTER ITERATIONS 
       AND A TOTAL OF          9 INNER ITERATIONS.
    ------------------------------------------------

 NO OUTPUT CONTROL FOR STRESS PERIOD   43   TIME STEP   12
 
 SOLVING FOR HEAD 
                                                   Max.-Head-Change                         Max.-Flux-Residual
  Residual-Control   Outer-Iter.   Inner-Iter.     Column Row Layer    Maximum-Head-Change  Column Row Layer    Maximum-Flux-Residual          L2-NORM 
          0                 1           2             5    8     1       0.3110272312E-01       5    8    1         0.1685331107E+01      0.3697888157E+01
          0                 2           2             4    7     1      -0.7181272872E-01       5    8    1        -0.3913423683E+01      0.9524444278E+01
          0                 3           2             4    7     1       0.4890150886E-02       5    8    1         0.2739142670E+00      0.6666646976E+00
          0                 4           2             4    7     1      -0.1945837992E-03       5    8    1        -0.1120080315E-01      0.2726325902E-01
          0                 5           1             4    7     1       0.2399302448E-05       5    8    1         0.1417916440E-03      0.3455097949E-03

    ------------------------------------------------
       NWT REQUIRED            5 OUTER ITERATIONS 
       AND A TOTAL OF          9 INNER ITERATIONS.
    ------------------------------------------------

 NO OUTPUT CONTROL FOR STRESS PERIOD   43   TIME STEP   13
 
 SOLVING FOR HEAD 
                                                   Max.-Head-Change                         Max.-Flux-Residual
  Residual-Control   Outer-Iter.   Inner-Iter.     Column Row Layer    Maximum-Head-Change  Column Row Layer    Maximum-Flux-Residual          L2-NORM 
          0                 1           2             5    8     1       0.3187430130E-01       5    8    1         0.1727408490E+01      0.3794755851E+01
          0                 2           2             4    7     1      -0.7186004918E-01       5    8    1        -0.3917631871E+01      0.9533146223E+01
          0                 3           2             4    7     1       0.4893373332E-02       5    8    1         0.2742103352E+00      0.6672766181E+00
          0                 4           2             4    7     1      -0.1947120230E-03       5    8    1        -0.1121305718E-01      0.2728844079E-01
          0                 5           1             4    7     1       0.2400883650E-05       5    8    1         0.1419567834E-03      0.3457956255E-03

    ------------------------------------------------
       NWT REQUIRED            5 OUTER ITERATIONS 
       AND A TOTAL OF          9 INNER ITERATIONS.
    ------------------------------------------------

 NO OUTPUT CONTROL FOR STRESS PERIOD   43   TIME STEP   14
 
 SOLVING FOR HEAD 
                                                   Max.-Head-Change                         Max.-Flux-Residual
  Residual-Control   Outer-Iter.   Inner-Iter.     Column Row Layer    Maximum-Head-Change  Column Row Layer    Maximum-Flux-Residual          L2-NORM 
          0                 1           2             5    8     1       0.3261037343E-01       5    8    1         0.1767515701E+01      0.3888523355E+01
          0                 2           2             4    7     1      -0.7190764145E-01       5    8    1        -0.3921642803E+01      0.9541592260E+01
          0                 3           2             4    7     1       0.4896614275E-02       5    8    1         0.2744924991E+00      0.6678706489E+00
          0                 4           2             4    7     1      -0.1948409824E-03       5    8    1        -0.1122473316E-01      0.2731290963E-01
          0                 5           1             4    7     1       0.2402473700E-05       5    8    1         0.1421139514E-03      0.3460882441E-03

    ------------------------------------------------
       NWT REQUIRED            5 OUTER ITERATIONS 
       AND A TOTAL OF          9 INNER ITERATIONS.
    ------------------------------------------------

 NO OUTPUT CONTROL FOR STRESS PERIOD   43   TIME STEP   15
 
 SOLVING FOR HEAD 
                                                   Max.-Head-Change                         Max.-Flux-Residual
  Residual-Control   Outer-Iter.   Inner-Iter.     Column Row Layer    Maximum-Head-Change  Column Row Layer    Maximum-Flux-Residual          L2-NORM 
          0                 1           2             5    8     1       0.3331282725E-01       5    8    1         0.1805758413E+01      0.3979300405E+01
          0                 2           2             4    7     1      -0.7195542429E-01       5    8    1        -0.3925467523E+01      0.9549794530E+01
          0                 3           2             4    7     1       0.4899868182E-02       5    8    1         0.2747615380E+00      0.6684476181E+00
          0                 4           2             4    7     1      -0.1949704582E-03       5    8    1        -0.1123586358E-01      0.2733669571E-01
          0                 5           1             4    7     1       0.2404070024E-05       5    8    1         0.1422636124E-03      0.3463765369E-03

    ------------------------------------------------
       NWT REQUIRED            5 OUTER ITERATIONS 
       AND A TOTAL OF          9 INNER ITERATIONS.
    ------------------------------------------------

 NO OUTPUT CONTROL FOR STRESS PERIOD   43   TIME STEP   16
 
 SOLVING FOR HEAD 
                                                   Max.-Head-Change                         Max.-Flux-Residual
  Residual-Control   Outer-Iter.   Inner-Iter.     Column Row Layer    Maximum-Head-Change  Column Row Layer    Maximum-Flux-Residual          L2-NORM 
          0                 1           2             5    8     1       0.3398382723E-01       5    8    1         0.1842258004E+01      0.4067187810E+01
          0                 2           2             4    7     1      -0.7200333503E-01       5    8    1        -0.3929117930E+01      0.9557761331E+01
          0                 3           2             4    7     1       0.4903130787E-02       5    8    1         0.2750182910E+00      0.6690080899E+00
          0                 4           2             4    7     1      -0.1951002797E-03       5    8    1        -0.1124648333E-01      0.2735981834E-01
          0                 5           1             4    7     1       0.2405670828E-05       5    8    1         0.1424062436E-03      0.3466631232E-03

    ------------------------------------------------
       NWT REQUIRED            5 OUTER ITERATIONS 
       AND A TOTAL OF          9 INNER ITERATIONS.
    ------------------------------------------------

 NO OUTPUT CONTROL FOR STRESS PERIOD   43   TIME STEP   17
 
 SOLVING FOR HEAD 
                                                   Max.-Head-Change                         Max.-Flux-Residual
  Residual-Control   Outer-Iter.   Inner-Iter.     Column Row Layer    Maximum-Head-Change  Column Row Layer    Maximum-Flux-Residual          L2-NORM 
          0                 1           2             5    8     1       0.3462551624E-01       5    8    1         0.1877134519E+01      0.4152303666E+01
          0                 2           2             4    7     1      -0.7205127720E-01       5    8    1        -0.3932605791E+01      0.9565502108E+01
          0                 3           2             4    7     1       0.4906395523E-02       5    8    1         0.2752635883E+00      0.6695527086E+00
          0                 4           2             4    7     1      -0.1952301867E-03       5    8    1        -0.1125662703E-01      0.2738230112E-01
          0                 5           1             4    7     1       0.2407272864E-05       5    8    1         0.1425423316E-03      0.3469482868E-03

    ------------------------------------------------
       NWT REQUIRED            5 OUTER ITERATIONS 
       AND A TOTAL OF          9 INNER ITERATIONS.
    ------------------------------------------------

 NO OUTPUT CONTROL FOR STRESS PERIOD   43   TIME STEP   18
 
 SOLVING FOR HEAD 
                                                   Max.-Head-Change                         Max.-Flux-Residual
  Residual-Control   Outer-Iter.   Inner-Iter.     Column Row Layer    Maximum-Head-Change  Column Row Layer    Maximum-Flux-Residual          L2-NORM 
          0                 1           2             5    8     1       0.3523946030E-01       5    8    1         0.1910475577E+01      0.4234760153E+01
          0                 2           2             4    7     1      -0.7209923880E-01       5    8    1        -0.3935940345E+01      0.9573027678E+01
          0                 3           2             4    7     1       0.4909661571E-02       5    8    1         0.2754980810E+00      0.6700822221E+00
          0                 4           2             4    7     1      -0.1953601454E-03       5    8    1        -0.1126632169E-01      0.2740417196E-01
          0                 5           1             4    7     1       0.2408875236E-05       5    8    1         0.1426722392E-03      0.3472193121E-03

    ------------------------------------------------
       NWT REQUIRED            5 OUTER ITERATIONS 
       AND A TOTAL OF          9 INNER ITERATIONS.
    ------------------------------------------------

 NO OUTPUT CONTROL FOR STRESS PERIOD   43   TIME STEP   19
 
 SOLVING FOR HEAD 
                                                   Max.-Head-Change                         Max.-Flux-Residual
  Residual-Control   Outer-Iter.   Inner-Iter.     Column Row Layer    Maximum-Head-Change  Column Row Layer    Maximum-Flux-Residual          L2-NORM 
          0                 1           2             5    8     1       0.3582753143E-01       5    8    1         0.1942385871E+01      0.4314650326E+01
          0                 2           2             4    7     1      -0.7214711458E-01       5    8    1        -0.3939131584E+01      0.9580343704E+01
          0                 3           2             4    7     1       0.4912921767E-02       5    8    1         0.2757224739E+00      0.6705970161E+00
          0                 4           2             4    7     1      -0.1954898715E-03       5    8    1        -0.1127559670E-01      0.2742544435E-01
          0                 5           1             4    7     1       0.2410475032E-05       5    8    1         0.1427964196E-03      0.3474909086E-03

    ------------------------------------------------
       NWT REQUIRED            5 OUTER ITERATIONS 
       AND A TOTAL OF          9 INNER ITERATIONS.
    ------------------------------------------------

 NO OUTPUT CONTROL FOR STRESS PERIOD   43   TIME STEP   20
 
 SOLVING FOR HEAD 
                                                   Max.-Head-Change                         Max.-Flux-Residual
  Residual-Control   Outer-Iter.   Inner-Iter.     Column Row Layer    Maximum-Head-Change  Column Row Layer    Maximum-Flux-Residual          L2-NORM 
          0                 1           2             5    8     1       0.3639104595E-01       5    8    1         0.1972938971E+01      0.4392090811E+01
          0                 2           2             4    7     1      -0.7219488486E-01       5    8    1        -0.3942187103E+01      0.9587460346E+01
          0                 3           2             4    7     1       0.4916174770E-02       5    8    1         0.2759373027E+00      0.6710977940E+00
          0                 4           2             4    7     1      -0.1956193113E-03       5    8    1        -0.1128447436E-01      0.2744614641E-01
          0                 5           1             4    7     1       0.2412070684E-05       5    8    1         0.1429150993E-03      0.3477575397E-03

    ------------------------------------------------
       NWT REQUIRED            5 OUTER ITERATIONS 
       AND A TOTAL OF          9 INNER ITERATIONS.
    ------------------------------------------------

 NO OUTPUT CONTROL FOR STRESS PERIOD   43   TIME STEP   21
 
 SOLVING FOR HEAD 
                                                   Max.-Head-Change                         Max.-Flux-Residual
  Residual-Control   Outer-Iter.   Inner-Iter.     Column Row Layer    Maximum-Head-Change  Column Row Layer    Maximum-Flux-Residual          L2-NORM 
          0                 1           2             5    8     1       0.3693150504E-01       5    8    1         0.2002218789E+01      0.4467180669E+01
          0                 2           2             4    7     1      -0.7224249359E-01       5    8    1        -0.3945115533E+01      0.9594385671E+01
          0                 3           2             4    7     1       0.4919416765E-02       5    8    1         0.2761431765E+00      0.6715850241E+00
          0                 4           2             4    7     1      -0.1957483132E-03       5    8    1        -0.1129298005E-01      0.2746628387E-01
          0                 5           1             4    7     1       0.2413661518E-05       5    8    1         0.1430287014E-03      0.3480241702E-03

    ------------------------------------------------
       NWT REQUIRED            5 OUTER ITERATIONS 
       AND A TOTAL OF          9 INNER ITERATIONS.
    ------------------------------------------------

 NO OUTPUT CONTROL FOR STRESS PERIOD   43   TIME STEP   22
 
 SOLVING FOR HEAD 
                                                   Max.-Head-Change                         Max.-Flux-Residual
  Residual-Control   Outer-Iter.   Inner-Iter.     Column Row Layer    Maximum-Head-Change  Column Row Layer    Maximum-Flux-Residual          L2-NORM 
          0                 1           2             5    8     1       0.3745044341E-01       5    8    1         0.2030310990E+01      0.4540005193E+01
          0                 2           2             4    7     1      -0.7228988843E-01       5    8    1        -0.3947924962E+01      0.9601124722E+01
          0                 3           2             4    7     1       0.4922644187E-02       5    8    1         0.2763406645E+00      0.6720590775E+00
          0                 4           2             4    7     1      -0.1958767353E-03       5    8    1        -0.1130113735E-01      0.2748587580E-01
          0                 5           1             4    7     1       0.2415244960E-05       5    8    1         0.1431375129E-03      0.3483073617E-03

    ------------------------------------------------
       NWT REQUIRED            5 OUTER ITERATIONS 
       AND A TOTAL OF          9 INNER ITERATIONS.
    ------------------------------------------------

 NO OUTPUT CONTROL FOR STRESS PERIOD   43   TIME STEP   23
 
 SOLVING FOR HEAD 
                                                   Max.-Head-Change                         Max.-Flux-Residual
  Residual-Control   Outer-Iter.   Inner-Iter.     Column Row Layer    Maximum-Head-Change  Column Row Layer    Maximum-Flux-Residual          L2-NORM 
          0                 1           2             5    8     1       0.3794886188E-01       5    8    1         0.2057271662E+01      0.4610676471E+01
          0                 2           2             4    7     1      -0.7233705262E-01       5    8    1        -0.3950621477E+01      0.9607687613E+01
          0                 3           2             4    7     1       0.4925855895E-02       5    8    1         0.2765301974E+00      0.6725203369E+00
          0                 4           2             4    7     1      -0.1960045320E-03       5    8    1        -0.1130896432E-01      0.2750490319E-01
          0                 5           1             4    7     1       0.2416820673E-05       5    8    1         0.1432418028E-03      0.3485850364E-03

    ------------------------------------------------
       NWT REQUIRED            5 OUTER ITERATIONS 
       AND A TOTAL OF          9 INNER ITERATIONS.
    ------------------------------------------------

 NO OUTPUT CONTROL FOR STRESS PERIOD   43   TIME STEP   24
 
 SOLVING FOR HEAD 
                                                   Max.-Head-Change                         Max.-Flux-Residual
  Residual-Control   Outer-Iter.   Inner-Iter.     Column Row Layer    Maximum-Head-Change  Column Row Layer    Maximum-Flux-Residual          L2-NORM 
          0                 1           2             5    8     1       0.3842812260E-01       5    8    1         0.2083176183E+01      0.4679267554E+01
          0                 2           2             4    7     1      -0.7238391491E-01       5    8    1        -0.3953212139E+01      0.9614078386E+01
          0                 3           2             4    7     1       0.4929047040E-02       5    8    1         0.2767122711E+00      0.6729690586E+00
          0                 4           2             4    7     1      -0.1961315107E-03       5    8    1        -0.1131648141E-01      0.2752337582E-01
          0                 5           1             4    7     1       0.2418386304E-05       5    8    1         0.1433418449E-03      0.3490217714E-03

    ------------------------------------------------
       NWT REQUIRED            5 OUTER ITERATIONS 
       AND A TOTAL OF          9 INNER ITERATIONS.
    ------------------------------------------------

 NO OUTPUT CONTROL FOR STRESS PERIOD   43   TIME STEP   25
 
 SOLVING FOR HEAD 
                                                   Max.-Head-Change                         Max.-Flux-Residual
  Residual-Control   Outer-Iter.   Inner-Iter.     Column Row Layer    Maximum-Head-Change  Column Row Layer    Maximum-Flux-Residual          L2-NORM 
          0                 1           2             5    8     1       0.3888920200E-01       5    8    1         0.2108079520E+01      0.4745874566E+01
          0                 2           2             4    7     1      -0.7243047869E-01       5    8    1        -0.3955702922E+01      0.9620305249E+01
          0                 3           2             4    7     1       0.4932217851E-02       5    8    1         0.2768873083E+00      0.6734058901E+00
          0                 4           2             4    7     1      -0.1962576803E-03       5    8    1        -0.1132370635E-01      0.2754131963E-01
          0                 5           1             4    7     1       0.2419942190E-05       5    8    1         0.1434378657E-03      0.3489884549E-03

    ------------------------------------------------
       NWT REQUIRED            5 OUTER ITERATIONS 
       AND A TOTAL OF          9 INNER ITERATIONS.
    ------------------------------------------------

 NO OUTPUT CONTROL FOR STRESS PERIOD   43   TIME STEP   26
 
 SOLVING FOR HEAD 
                                                   Max.-Head-Change                         Max.-Flux-Residual
  Residual-Control   Outer-Iter.   Inner-Iter.     Column Row Layer    Maximum-Head-Change  Column Row Layer    Maximum-Flux-Residual          L2-NORM 
          0                 1           2             5    8     1       0.3933300649E-01       5    8    1         0.2132032317E+01      0.4810566140E+01
          0                 2           2             4    7     1      -0.7247669176E-01       5    8    1        -0.3958098412E+01      0.9626372125E+01
          0                 3           2             4    7     1       0.4935364775E-02       5    8    1         0.2770556327E+00      0.6738314318E+00
          0                 4           2             4    7     1      -0.1963828994E-03       5    8    1        -0.1133065263E-01      0.2755879671E-01
          0                 5           1             4    7     1       0.2421486091E-05       5    8    1         0.1435301110E-03      0.3492111740E-03

    ------------------------------------------------
       NWT REQUIRED            5 OUTER ITERATIONS 
       AND A TOTAL OF          9 INNER ITERATIONS.
    ------------------------------------------------

 NO OUTPUT CONTROL FOR STRESS PERIOD   43   TIME STEP   27
 
 SOLVING FOR HEAD 
                                                   Max.-Head-Change                         Max.-Flux-Residual
  Residual-Control   Outer-Iter.   Inner-Iter.     Column Row Layer    Maximum-Head-Change  Column Row Layer    Maximum-Flux-Residual          L2-NORM 
          0                 1           2             5    8     1       0.3976081670E-01       5    8    1         0.2155105020E+01      0.4873436797E+01
          0                 2           2             4    7     1      -0.7252253704E-01       5    8    1        -0.3960406131E+01      0.9632287590E+01
          0                 3           2             4    7     1       0.4938486649E-02       5    8    1         0.2772177725E+00      0.6742463358E+00
          0                 4           2             4    7     1      -0.1965071218E-03       5    8    1        -0.1133734201E-01      0.2757583674E-01
          0                 5           1             4    7     1       0.2423017893E-05       5    8    1         0.1436188209E-03      0.3494307758E-03

    ------------------------------------------------
       NWT REQUIRED            5 OUTER ITERATIONS 
       AND A TOTAL OF          9 INNER ITERATIONS.
    ------------------------------------------------

 NO OUTPUT CONTROL FOR STRESS PERIOD   43   TIME STEP   28
 
 SOLVING FOR HEAD 
                                                   Max.-Head-Change                         Max.-Flux-Residual
  Residual-Control   Outer-Iter.   Inner-Iter.     Column Row Layer    Maximum-Head-Change  Column Row Layer    Maximum-Flux-Residual          L2-NORM 
          0                 1           2             5    8     1       0.4017310846E-01       5    8    1         0.2177324939E+01      0.4934550246E+01
          0                 2           2             4    7     1      -0.7256799519E-01       5    8    1        -0.3962628335E+01      0.9638055032E+01
          0                 3           2             4    7     1       0.4941582155E-02       5    8    1         0.2773738890E+00      0.6746508400E+00
          0                 4           2             4    7     1      -0.1966302951E-03       5    8    1        -0.1134378143E-01      0.2759244894E-01
          0                 5           1             4    7     1       0.2424536703E-05       5    8    1         0.1437041099E-03      0.3496416509E-03

    ------------------------------------------------
       NWT REQUIRED            5 OUTER ITERATIONS 
       AND A TOTAL OF          9 INNER ITERATIONS.
    ------------------------------------------------

 NO OUTPUT CONTROL FOR STRESS PERIOD   43   TIME STEP   29
 
 SOLVING FOR HEAD 
                                                   Max.-Head-Change                         Max.-Flux-Residual
  Residual-Control   Outer-Iter.   Inner-Iter.     Column Row Layer    Maximum-Head-Change  Column Row Layer    Maximum-Flux-Residual          L2-NORM 
          0                 1           2             5    8     1       0.4057103450E-01       5    8    1         0.2198755836E+01      0.4993979676E+01
          0                 2           2             4    7     1      -0.7261302692E-01       5    8    1        -0.3964771874E+01      0.9643680701E+01
          0                 3           2             4    7     1       0.4944648621E-02       5    8    1         0.2775244637E+00      0.6750453826E+00
          0                 4           2             4    7     1      -0.1967523128E-03       5    8    1        -0.1134999077E-01      0.2760865133E-01
          0                 5           1             4    7     1       0.2426041286E-05       5    8    1         0.1437862491E-03      0.3498535134E-03

    ------------------------------------------------
       NWT REQUIRED            5 OUTER ITERATIONS 
       AND A TOTAL OF          9 INNER ITERATIONS.
    ------------------------------------------------

 NO OUTPUT CONTROL FOR STRESS PERIOD   43   TIME STEP   30



 STREAM LISTING     PERIOD     43   STEP       30

 LAYER ROW COL. STREAM  RCH.  FLOW INTO     FLOW TO   FLOW OUT OF   OVRLND.     DIRECT     STREAM       STREAM     STREAM     STREAM   STREAMBED  STREAMBED
                SEG.NO.  NO.  STRM. RCH.    AQUIFER    STRM. RCH.    RUNOFF     PRECIP       ET          HEAD       DEPTH      WIDTH   CONDCTNC.   GRADIENT

   1    1    1     1     1    1.9000E+01  2.1427E-01   1.8786E+01  0.000E+00  0.000E+00  0.000E+00  1.09413E+03  1.082E+00  1.166E+01  5.249E-02  1.361E+00
   1    2    2     1     2    1.8786E+01  3.3054E-01   1.8455E+01  0.000E+00  0.000E+00  0.000E+00  1.08914E+03  1.077E+00  1.158E+01  8.107E-02  1.359E+00
   1    3    3     1     3    1.8455E+01  2.8064E-01   1.8175E+01  0.000E+00  0.000E+00  0.000E+00  1.08349E+03  1.072E+00  1.149E+01  6.892E-02  1.357E+00
   1    3    4     1     4    1.8175E+01  2.5740E-01   1.7917E+01  0.000E+00  0.000E+00  0.000E+00  1.07848E+03  1.068E+00  1.140E+01  6.328E-02  1.356E+00
   1    4    5     2     1    1.5917E+01  3.0542E-01   1.5612E+01  0.000E+00  0.000E+00  0.000E+00  1.07285E+03  9.157E-01  1.200E+01  7.800E-02  1.305E+00
   1    5    6     2     2    1.5612E+01  2.3438E-01   1.5377E+01  0.000E+00  0.000E+00  0.000E+00  1.06742E+03  9.063E-01  1.200E+01  6.000E-02  1.302E+00
   1    6    6     2     3    1.5377E+01  2.3388E-01   1.5143E+01  0.000E+00  0.000E+00  0.000E+00  1.06269E+03  8.980E-01  1.200E+01  6.000E-02  1.299E+00
   1    7    6     2     4    1.5143E+01  2.3338E-01   1.4910E+01  0.000E+00  0.000E+00  0.000E+00  1.05797E+03  8.897E-01  1.200E+01  6.000E-02  1.297E+00
   1    8    6     2     5    1.4910E+01  2.3289E-01   1.4677E+01  0.000E+00  0.000E+00  0.000E+00  1.05324E+03  8.814E-01  1.200E+01  6.000E-02  1.294E+00
   1    3    5     3     1    2.0000E+00  2.8252E-01   1.7175E+00  0.000E+00  0.000E+00  0.000E+00  1.07555E+03  1.909E+00  9.636E+00  7.227E-02  1.955E+00
   1    3    6     3     2    1.7175E+00  2.4905E-01   1.4684E+00  0.000E+00  0.000E+00  0.000E+00  1.07264E+03  1.727E+00  8.909E+00  6.682E-02  1.864E+00
   1    3    7     3     3    1.4684E+00  1.9718E-01   1.2712E+00  0.000E+00  0.000E+00  0.000E+00  1.06987E+03  1.555E+00  8.218E+00  5.547E-02  1.777E+00
   1    4    8     3     4    1.2712E+00  2.2567E-01   1.0456E+00  0.000E+00  0.000E+00  0.000E+00  1.06682E+03  1.364E+00  7.455E+00  6.709E-02  1.682E+00
   1    5    8     3     5    1.0456E+00  1.5790E-01   8.8768E-01  0.000E+00  0.000E+00  0.000E+00  1.06362E+03  1.164E+00  6.655E+00  4.991E-02  1.582E+00
   1    6    8     3     6    8.8768E-01  5.5980E-02   8.3170E-01  0.000E+00  0.000E+00  0.000E+00  1.06158E+03  1.036E+00  6.145E+00  1.844E-02  1.518E+00
   1    5   10     4     1    1.0000E+01  9.0919E-02   9.9091E+00  0.000E+00  0.000E+00  0.000E+00  1.07836E+03  6.368E-01  1.000E+01  2.500E-02  1.212E+00
   1    5    9     4     2    9.9091E+00  1.8158E-01   9.7275E+00  0.000E+00  0.000E+00  0.000E+00  1.07154E+03  6.315E-01  1.000E+01  5.000E-02  1.211E+00
   1    6    8     4     3    9.7275E+00  1.2689E-01   9.6006E+00  0.000E+00  0.000E+00  0.000E+00  1.06381E+03  6.256E-01  1.000E+01  3.500E-02  1.209E+00
   1    6    8     5     1    1.0432E+01  2.2686E-01   1.0205E+01  0.000E+00  0.000E+00  0.000E+00  1.05868E+03  6.790E-01  1.542E+01  6.166E-02  1.226E+00
   1    7    7     5     2    1.0205E+01  2.7894E-01   9.9265E+00  0.000E+00  0.000E+00  0.000E+00  1.05417E+03  6.732E-01  1.519E+01  7.594E-02  1.224E+00
   1    8    7     5     3    9.9265E+00  1.9221E-01   9.7343E+00  0.000E+00  0.000E+00  0.000E+00  1.04992E+03  6.676E-01  1.497E+01  5.241E-02  1.223E+00
   1    8    6     5     4    9.7343E+00  1.3577E-01   9.5985E+00  0.000E+00  0.000E+00  0.000E+00  1.04691E+03  6.637E-01  1.482E+01  3.706E-02  1.221E+00
   1    9    6     6     1    2.4276E+01  2.5176E-01   2.4024E+01  0.000E+00  0.000E+00  0.000E+00  1.04392E+03  1.196E+00  1.200E+01  6.000E-02  1.399E+00
   1   10    7     6     2    2.4024E+01  2.5131E-01   2.3773E+01  0.000E+00  0.000E+00  0.000E+00  1.03937E+03  1.188E+00  1.200E+01  6.000E-02  1.396E+00
   1   11    7     6     3    2.3773E+01  2.5086E-01   2.3522E+01  0.000E+00  0.000E+00  0.000E+00  1.03482E+03  1.181E+00  1.200E+01  6.000E-02  1.394E+00
   1   12    7     6     4    2.3522E+01  2.5041E-01   2.3271E+01  0.000E+00  0.000E+00  0.000E+00  1.03026E+03  1.173E+00  1.200E+01  6.000E-02  1.391E+00
   1   13    7     6     5    2.3271E+01  1.1247E-02   2.3260E+01  0.000E+00  0.000E+00  0.000E+00  1.02708E+03  1.170E+00  1.200E+01  2.400E-02  1.562E-01
   1   14    9     7     1    1.5000E+02  1.3716E+00   1.4863E+02  0.000E+00  0.000E+00  0.000E+00  1.03987E+03  2.288E+00  5.529E+01  5.593E-01  8.175E-01
   1   13    8     7     2    1.4863E+02  1.9741E+00   1.4665E+02  0.000E+00  0.000E+00  0.000E+00  1.03478E+03  2.279E+00  5.525E+01  6.147E-01  1.070E+00
   1   13    7     7     3    1.4665E+02  1.7188E+00   1.4494E+02  0.000E+00  0.000E+00  0.000E+00  1.02969E+03  2.269E+00  5.521E+01  5.584E-01  1.026E+00
   1   13    6     8     1    1.6820E+02  1.1517E+00   1.6704E+02  0.000E+00  0.000E+00  0.000E+00  1.02481E+03  2.937E+00  4.258E+01  4.339E-01  8.848E-01
   1   13    5     8     2    1.6704E+02  3.8635E-01   1.6666E+02  0.000E+00  0.000E+00  0.000E+00  1.01856E+03  2.932E+00  4.251E+01  4.332E-01  2.973E-01
   1   13    4     8     3    1.6666E+02 -1.7356E+00   1.6839E+02  0.000E+00  0.000E+00  0.000E+00  1.01231E+03  2.936E+00  4.257E+01  4.338E+00 -1.334E-01
   1   13    3     8     4    1.6839E+02 -3.3020E+00   1.7170E+02  0.000E+00  0.000E+00  0.000E+00  1.00608E+03  2.952E+00  4.281E+01  4.363E+00 -2.523E-01
   1   13    2     8     5    1.7170E+02 -2.4901E+00   1.7419E+02  0.000E+00  0.000E+00  0.000E+00  9.99846E+02  2.971E+00  4.308E+01  4.390E+00 -1.891E-01
   1   13    1     8     6    1.7419E+02 -1.9597E+00   1.7614E+02  0.000E+00  0.000E+00  0.000E+00  9.94861E+02  2.986E+00  4.329E+01  2.647E+00 -2.468E-01





UNSATURATED ZONE PACKAGE VOLUMETRIC BUDGET FOR  TIME STEP    30 STRESS PERIOD   43
  ------------------------------------------------------------------------------



     CUMULATIVE VOLUMES      L**3       RATES FOR THIS TIME STEP      L**3/T
     ------------------                 ------------------------

           IN:                                      IN:
           ---                                      ---
        INFILTRATION =  1393915894.0172          INFILTRATION =          23.3169

          OUT:                                     OUT:
          ----                                     ----
              UZF ET =  1393056224.4246                UZF ET =          23.3175
        UZF RECHARGE =       73224.0000          UZF RECHARGE =       0.0000E+00

            IN - OUT =      786445.5926              IN - OUT =      -6.1798E-04

          STORAGE:                                 STORAGE:
          --------                                 --------
      STORAGE CHANGE =      786436.8429        STORAGE CHANGE =      -6.1817E-04

 PERCENT DISCREPANCY IS DIFFERENCE BETWEEN IN-OUT MINUS CHANGE IN STORAGE
 DIVIDED BY THE AVERAGE OF IN AND OUT TIMES 100

 PERCENT DISCREPANCY =           0.00     PERCENT DISCREPANCY =           0.00






1
  VOLUMETRIC BUDGET FOR AGRICULTURAL FIELDS AT  END OF TIME STEP   30, STRESS PERIOD  43
  ------------------------------------------------------------------------------

     CUMULATIVE VOLUMES      L**3       RATES FOR THIS TIME STEP      L**3/T
     ------------------                 ------------------------

           IN:                                      IN:
           ---                                      ---
               AG WELLS  =  1300222976.0000                 AG WELLS  =          22.4694
      DIVERSION SEGMENTS =           0.0000        DIVERSION SEGMENTS =           0.0000
       IRRIGATION PONDS  =           0.0000         IRRIGATION PONDS  =           0.0000
           GW IRRIGATION =           0.0000             GW IRRIGATION =           0.0000
           SW IRRIGATION =           0.0000             SW IRRIGATION =           0.0000
        SYSTEM LOSSES GW =           0.0000          SYSTEM LOSSES GW =           0.0000
        SYSTEM LOSSES SW =           0.0000          SYSTEM LOSSES SW =           0.0000

                TOTAL IN =  1300222976.0000                  TOTAL IN =          22.4694

          OUT:                                     OUT:
          ----                                     ----
               AG WELLS  =           0.0000                 AG WELLS  =           0.0000
      DIVERSION SEGMENTS =           0.0000        DIVERSION SEGMENTS =           0.0000
       IRRIGATION PONDS  =           0.0000         IRRIGATION PONDS  =           0.0000
           GW IRRIGATION =  1300222976.0000             GW IRRIGATION =          22.4694
           SW IRRIGATION =           0.0000             SW IRRIGATION =           0.0000
        SYSTEM LOSSES GW =           0.0000          SYSTEM LOSSES GW =           0.0000
        SYSTEM LOSSES SW =           0.0000          SYSTEM LOSSES SW =           0.0000

               TOTAL OUT =  1300222976.0000                 TOTAL OUT =          22.4694

                IN - OUT =           0.0000                  IN - OUT =           0.0000

     PERCENT DISCREPANCY =           0.00         PERCENT DISCREPANCY =           0.00



1
  VOLUMETRIC BUDGET FOR ENTIRE MODEL AT END OF TIME STEP   30, STRESS PERIOD  43
  ------------------------------------------------------------------------------

     CUMULATIVE VOLUMES      L**3       RATES FOR THIS TIME STEP      L**3/T
     ------------------                 ------------------------

           IN:                                      IN:
           ---                                      ---
             STORAGE     =  1777510144.0000               STORAGE     =          19.6402
       CONSTANT HEAD     =           0.0000         CONSTANT HEAD     =           0.0000
     HEAD DEP BOUNDS     =    31629530.0000       HEAD DEP BOUNDS     =           0.2882
      STREAM LEAKAGE     =  1354147200.0000        STREAM LEAKAGE     =          12.3424
        UZF RECHARGE     =       73223.9531          UZF RECHARGE     =           0.0000
               GW ET     =           0.0000                 GW ET     =           0.0000
     SURFACE LEAKAGE     =           0.0000       SURFACE LEAKAGE     =           0.0000
           AG WELLS      =           0.0000             AG WELLS      =           0.0000

                TOTAL IN =  3163360256.0000                  TOTAL IN =          32.2708

          OUT:                                     OUT:
          ----                                     ----
             STORAGE     =   690936000.0000               STORAGE     =       2.5189E-02
       CONSTANT HEAD     =           0.0000         CONSTANT HEAD     =           0.0000
     HEAD DEP BOUNDS     =    32272186.0000       HEAD DEP BOUNDS     =           0.2888
      STREAM LEAKAGE     =  1122328832.0000        STREAM LEAKAGE     =           9.4874
        UZF RECHARGE     =           0.0000          UZF RECHARGE     =           0.0000
               GW ET     =    17603406.0000                 GW ET     =           0.0000
     SURFACE LEAKAGE     =           0.0000       SURFACE LEAKAGE     =           0.0000
           AG WELLS      =  1300222976.0000             AG WELLS      =          22.4694

               TOTAL OUT =  3163363328.0000                 TOTAL OUT =          32.2708

                IN - OUT =       -3072.0000                  IN - OUT =       1.9073E-05

     PERCENT DISCREPANCY =          -0.00         PERCENT DISCREPANCY =           0.00






         TIME SUMMARY AT END OF TIME STEP   30 IN STRESS PERIOD   43
                    SECONDS     MINUTES      HOURS       DAYS        YEARS
                    -----------------------------------------------------------
   TIME STEP LENGTH  87667.      1461.1      24.352      1.0147     2.77799E-03
 STRESS PERIOD TIME 2.63000E+06  43833.      730.56      30.440     8.33397E-02
         TOTAL TIME 1.10545E+08 1.84242E+06  30707.      1279.5      3.5030    
1
1
                            STRESS PERIOD NO.   44, LENGTH =   2630000.    
                            -----------------------------------------------

                              NUMBER OF TIME STEPS =    30

                               MULTIPLIER FOR DELT =     1.000

                            INITIAL TIME STEP SIZE =   87666.66    

 REUSING NON-PARAMETER GHB CELLS FROM LAST STRESS PERIOD

      2 GHB CELLS

 REUSING STREAM SEGMENT DATA FROM LAST STRESS PERIOD



            AREAL INFILTRATION RATE
 READING ON UNIT   19 WITH FORMAT: (FREE)              

            1           2           3           4           5           6           7           8           9          10
 ........................................................................................................................
   1   1.0000E-10  2.0000E-10   0.000       0.000       0.000       0.000       0.000       0.000       0.000       0.000    
   2   2.0000E-10  1.0000E-10  2.0000E-10   0.000       0.000      8.0000E-10  8.0000E-10  5.0000E-10   0.000       0.000    
   3    0.000      5.0000E-10  1.0000E-10  1.0000E-10  8.0000E-10  8.0000E-10  5.0000E-10  5.0000E-10   0.000       0.000    
   4   8.0000E-10  5.0000E-10  1.0000E-10  1.0000E-10  1.0000E-10  1.0000E-10  1.0000E-10  1.0000E-10  2.0000E-10   0.000    
   5   8.0000E-10  5.0000E-10  1.0000E-10  1.0000E-10  1.0000E-10  1.0000E-10  1.0000E-10  1.0000E-10  1.0000E-10  1.0000E-10
   6   8.0000E-10  5.0000E-10  5.0000E-10  2.0000E-10  2.0000E-10  1.0000E-10  1.0000E-10  1.0000E-10  1.0000E-10  5.0000E-10
   7   8.0000E-10  5.0000E-10  5.0000E-10  2.0000E-10  2.0000E-10  1.0000E-10  1.0000E-10  2.0000E-10  2.0000E-10   0.000    
   8    0.000      5.0000E-10  5.0000E-10  2.0000E-10  2.0000E-10  1.0000E-10  1.0000E-10  2.0000E-10  5.0000E-10   0.000    
   9    0.000      5.0000E-10  5.0000E-10  2.0000E-10  2.0000E-10  1.0000E-10  1.0000E-10  2.0000E-10  5.0000E-10   0.000    
  10    0.000      5.0000E-10  5.0000E-10  2.0000E-10  2.0000E-10  1.0000E-10  1.0000E-10  2.0000E-10  5.0000E-10  8.0000E-10
  11    0.000      1.0000E-10  1.0000E-10  1.0000E-10  1.0000E-10  1.0000E-10  1.0000E-10  2.0000E-10  5.0000E-10   0.000    
  12   1.0000E-10  1.0000E-10  1.0000E-10  1.0000E-10  1.0000E-10  1.0000E-10  1.0000E-10  1.0000E-10  2.0000E-10   0.000    
  13   1.0000E-10  1.0000E-10  2.0000E-10  2.0000E-10  2.0000E-10  2.0000E-10  2.0000E-10  1.0000E-10  1.0000E-10   0.000    
  14    0.000      2.0000E-10  5.0000E-10  5.0000E-10  5.0000E-10  5.0000E-10  5.0000E-10  2.0000E-10  1.0000E-10   0.000    
  15    0.000       0.000      8.0000E-10  8.0000E-10  8.0000E-10  8.0000E-10   0.000       0.000       0.000       0.000    

                  ET RATE =  4.000000E-07

 USING ET EXTINCTION DEPTH FROM PREVIOUS STRESS PERIOD. CURRENT PERIOD IS:      44

 USING EXTINCTION WATER CONTENT FROM PREVIOUS STRESS PERIOD. CURRENT PERIOD IS:      44

 USING AIR ENTRY PRESSURE FROM PREVIOUS STRESS PERIOD. CURRENT PERIOD IS:      44

 USING ROOT PRESSURE HEAD FROM PREVIOUS STRESS PERIOD. CURRENT PERIOD IS:      44

 USING ROOT ACTIVITY FROM PREVIOUS STRESS PERIOD. CURRENT PERIOD IS:      44

 PROCESSING AG STRESS PERIOD DATA

 READING AG STRESS PERIOD DATA

 READING IRRIGATION WELL

 NO IRRPOND OR REUSING IRRPOND DATA FROM LAST STRESS PERIOD

 END PROCESSING AG STRESS PERIOD DATA OPTIONS
 
 SOLVING FOR HEAD 
                                                   Max.-Head-Change                         Max.-Flux-Residual
  Residual-Control   Outer-Iter.   Inner-Iter.     Column Row Layer    Maximum-Head-Change  Column Row Layer    Maximum-Flux-Residual          L2-NORM 
          0                 1           2             4    7     1      -0.1619270367E+00       4    7    1        -0.8466931042E+01      0.1982549271E+02
          0                 2           2             4    7     1       0.1575083919E-01       4    7    1         0.8466767630E+00      0.1982522646E+01
          0                 3           2             4    7     1      -0.1072576162E-02       4    7    1        -0.5926755363E-01      0.1387768950E+00
          0                 4           1             4    7     1       0.4267879812E-04       4    7    1         0.2424045608E-02      0.5675981031E-02

    ------------------------------------------------
       NWT REQUIRED            4 OUTER ITERATIONS 
       AND A TOTAL OF          7 INNER ITERATIONS.
    ------------------------------------------------

 NO OUTPUT CONTROL FOR STRESS PERIOD   44   TIME STEP    1
 
 SOLVING FOR HEAD 
                                                   Max.-Head-Change                         Max.-Flux-Residual
  Residual-Control   Outer-Iter.   Inner-Iter.     Column Row Layer    Maximum-Head-Change  Column Row Layer    Maximum-Flux-Residual          L2-NORM 
          0                 1           2             5    8     1       0.4469072303E-01       5    8    1         0.2425011377E+01      0.5464133501E+01
          0                 2           2             4    7     1      -0.1892153306E+00       5    8    1        -0.1023740296E+02      0.2499161605E+02
          0                 3           2             4    7     1       0.1288467499E-01       5    8    1         0.7165228179E+00      0.1749247264E+01
          0                 4           2             4    7     1      -0.5126941687E-03       5    8    1        -0.2929751843E-01      0.7153491599E-01
          0                 5           1             4    7     1       0.6321740069E-05       5    8    1         0.3707226424E-03      0.9071661464E-03

    ------------------------------------------------
       NWT REQUIRED            5 OUTER ITERATIONS 
       AND A TOTAL OF          9 INNER ITERATIONS.
    ------------------------------------------------

 NO OUTPUT CONTROL FOR STRESS PERIOD   44   TIME STEP    2
 
 SOLVING FOR HEAD 
                                                   Max.-Head-Change                         Max.-Flux-Residual
  Residual-Control   Outer-Iter.   Inner-Iter.     Column Row Layer    Maximum-Head-Change  Column Row Layer    Maximum-Flux-Residual          L2-NORM 
          0                 1           2             5    8     1       0.4821843856E-01       5    8    1         0.2618974071E+01      0.5863518786E+01
          0                 2           2             4    7     1      -0.1893247177E+00       5    8    1        -0.1025679902E+02      0.2502454360E+02
          0                 3           2             4    7     1       0.1289036266E-01       5    8    1         0.7177911645E+00      0.1751322379E+01
          0                 4           2             4    7     1      -0.5129204758E-03       5    8    1        -0.2935016288E-01      0.7161978585E-01
          0                 5           1             4    7     1       0.6324530471E-05       5    8    1         0.3714420300E-03      0.9079949247E-03

    ------------------------------------------------
       NWT REQUIRED            5 OUTER ITERATIONS 
       AND A TOTAL OF          9 INNER ITERATIONS.
    ------------------------------------------------

 NO OUTPUT CONTROL FOR STRESS PERIOD   44   TIME STEP    3
 
 SOLVING FOR HEAD 
                                                   Max.-Head-Change                         Max.-Flux-Residual
  Residual-Control   Outer-Iter.   Inner-Iter.     Column Row Layer    Maximum-Head-Change  Column Row Layer    Maximum-Flux-Residual          L2-NORM 
          0                 1           2             5    8     1       0.5155560528E-01       5    8    1         0.2802289873E+01      0.6249530700E+01
          0                 2           2             4    7     1      -0.1894379063E+00       5    8    1        -0.1027513038E+02      0.2505639603E+02
          0                 3           2             4    7     1       0.1289807220E-01       5    8    1         0.7190817047E+00      0.1753561523E+01
          0                 4           2             4    7     1      -0.5132272365E-03       5    8    1        -0.2940365972E-01      0.7171159582E-01
          0                 5           1             4    7     1       0.6328312876E-05       5    8    1         0.3721684793E-03      0.9089680569E-03

    ------------------------------------------------
       NWT REQUIRED            5 OUTER ITERATIONS 
       AND A TOTAL OF          9 INNER ITERATIONS.
    ------------------------------------------------

 NO OUTPUT CONTROL FOR STRESS PERIOD   44   TIME STEP    4
 
 SOLVING FOR HEAD 
                                                   Max.-Head-Change                         Max.-Flux-Residual
  Residual-Control   Outer-Iter.   Inner-Iter.     Column Row Layer    Maximum-Head-Change  Column Row Layer    Maximum-Flux-Residual          L2-NORM 
          0                 1           2             5    8     1       0.5471548530E-01       5    8    1         0.2975706799E+01      0.6621944119E+01
          0                 2           2             4    7     1      -0.1895544562E+00       5    8    1        -0.1029247183E+02      0.2508721886E+02
          0                 3           2             4    7     1       0.1290601048E-01       5    8    1         0.7203024415E+00      0.1755729380E+01
          0                 4           2             4    7     1      -0.5135430996E-03       5    8    1        -0.2945425170E-01      0.7180068266E-01
          0                 5           1             4    7     1       0.6332207743E-05       5    8    1         0.3728547197E-03      0.9099620989E-03

    ------------------------------------------------
       NWT REQUIRED            5 OUTER ITERATIONS 
       AND A TOTAL OF          9 INNER ITERATIONS.
    ------------------------------------------------

 NO OUTPUT CONTROL FOR STRESS PERIOD   44   TIME STEP    5
 
 SOLVING FOR HEAD 
                                                   Max.-Head-Change                         Max.-Flux-Residual
  Residual-Control   Outer-Iter.   Inner-Iter.     Column Row Layer    Maximum-Head-Change  Column Row Layer    Maximum-Flux-Residual          L2-NORM 
          0                 1           2             5    8     1       0.5771019799E-01       5    8    1         0.3139907766E+01      0.6980871969E+01
          0                 2           2             4    7     1      -0.1896740201E+00       5    8    1        -0.1030889168E+02      0.2511705787E+02
          0                 3           2             4    7     1       0.1291415385E-01       5    8    1         0.7214581937E+00      0.1757828958E+01
          0                 4           2             4    7     1      -0.5138671243E-03       5    8    1        -0.2950213964E-01      0.7188713472E-01
          0                 5           1             4    7     1       0.6336203089E-05       5    8    1         0.3735035409E-03      0.9109488025E-03

    ------------------------------------------------
       NWT REQUIRED            5 OUTER ITERATIONS 
       AND A TOTAL OF          9 INNER ITERATIONS.
    ------------------------------------------------

 NO OUTPUT CONTROL FOR STRESS PERIOD   44   TIME STEP    6
 
 SOLVING FOR HEAD 
                                                   Max.-Head-Change                         Max.-Flux-Residual
  Residual-Control   Outer-Iter.   Inner-Iter.     Column Row Layer    Maximum-Head-Change  Column Row Layer    Maximum-Flux-Residual          L2-NORM 
          0                 1           2             5    8     1       0.6055103353E-01       5    8    1         0.3295528967E+01      0.7326605898E+01
          0                 2           2             4    7     1      -0.1897962070E+00       5    8    1        -0.1032445354E+02      0.2514595490E+02
          0                 3           2             4    7     1       0.1292247571E-01       5    8    1         0.7225534503E+00      0.1759863021E+01
          0                 4           2             4    7     1      -0.5141982515E-03       5    8    1        -0.2954751059E-01      0.7197103555E-01
          0                 5           1             4    7     1       0.6340286029E-05       5    8    1         0.3741175769E-03      0.9119458648E-03

    ------------------------------------------------
       NWT REQUIRED            5 OUTER ITERATIONS 
       AND A TOTAL OF          9 INNER ITERATIONS.
    ------------------------------------------------

 NO OUTPUT CONTROL FOR STRESS PERIOD   44   TIME STEP    7
 
 SOLVING FOR HEAD 
                                                   Max.-Head-Change                         Max.-Flux-Residual
  Residual-Control   Outer-Iter.   Inner-Iter.     Column Row Layer    Maximum-Head-Change  Column Row Layer    Maximum-Flux-Residual          L2-NORM 
          0                 1           2             5    8     1       0.6324824928E-01       5    8    1         0.3443147986E+01      0.7659556410E+01
          0                 2           2             4    7     1      -0.1899207163E+00       5    8    1        -0.1033921517E+02      0.2517395141E+02
          0                 3           2             4    7     1       0.1293095556E-01       5    8    1         0.7235922877E+00      0.1761834119E+01
          0                 4           2             4    7     1      -0.5145356668E-03       5    8    1        -0.2959053460E-01      0.7205244355E-01
          0                 5           1             4    7     1       0.6344446484E-05       5    8    1         0.3746992020E-03      0.9129397066E-03

    ------------------------------------------------
       NWT REQUIRED            5 OUTER ITERATIONS 
       AND A TOTAL OF          9 INNER ITERATIONS.
    ------------------------------------------------

 NO OUTPUT CONTROL FOR STRESS PERIOD   44   TIME STEP    8
 
 SOLVING FOR HEAD 
                                                   Max.-Head-Change                         Max.-Flux-Residual
  Residual-Control   Outer-Iter.   Inner-Iter.     Column Row Layer    Maximum-Head-Change  Column Row Layer    Maximum-Flux-Residual          L2-NORM 
          0                 1           2             5    8     1       0.6581157488E-01       5    8    1         0.3583312274E+01      0.7980196565E+01
          0                 2           2             4    7     1      -0.1900472012E+00       5    8    1        -0.1035323133E+02      0.2520108547E+02
          0                 3           2             4    7     1       0.1293956983E-01       5    8    1         0.7245785669E+00      0.1763744757E+01
          0                 4           2             4    7     1      -0.5148784313E-03       5    8    1        -0.2963137234E-01      0.7213143449E-01
          0                 5           1             4    7     1       0.6348673028E-05       5    8    1         0.3752506248E-03      0.9139262444E-03

    ------------------------------------------------
       NWT REQUIRED            5 OUTER ITERATIONS 
       AND A TOTAL OF          9 INNER ITERATIONS.
    ------------------------------------------------

 NO OUTPUT CONTROL FOR STRESS PERIOD   44   TIME STEP    9
 
 SOLVING FOR HEAD 
                                                   Max.-Head-Change                         Max.-Flux-Residual
  Residual-Control   Outer-Iter.   Inner-Iter.     Column Row Layer    Maximum-Head-Change  Column Row Layer    Maximum-Flux-Residual          L2-NORM 
          0                 1           2             5    8     1       0.6824955954E-01       5    8    1         0.3716502902E+01      0.8289007872E+01
          0                 2           2             4    7     1      -0.1901753769E+00       5    8    1        -0.1036655012E+02      0.2522739227E+02
          0                 3           2             4    7     1       0.1294829912E-01       5    8    1         0.7255156838E+00      0.1765597177E+01
          0                 4           2             4    7     1      -0.5152257724E-03       5    8    1        -0.2967016552E-01      0.7220806871E-01
          0                 5           1             4    7     1       0.6352955691E-05       5    8    1         0.3757738368E-03      0.9149005215E-03

    ------------------------------------------------
       NWT REQUIRED            5 OUTER ITERATIONS 
       AND A TOTAL OF          9 INNER ITERATIONS.
    ------------------------------------------------

 NO OUTPUT CONTROL FOR STRESS PERIOD   44   TIME STEP   10
 
 SOLVING FOR HEAD 
                                                   Max.-Head-Change                         Max.-Flux-Residual
  Residual-Control   Outer-Iter.   Inner-Iter.     Column Row Layer    Maximum-Head-Change  Column Row Layer    Maximum-Flux-Residual          L2-NORM 
          0                 1           2             5    8     1       0.7057065097E-01       5    8    1         0.3843194356E+01      0.8586532154E+01
          0                 2           2             4    7     1      -0.1903049781E+00       5    8    1        -0.1037921899E+02      0.2525290910E+02
          0                 3           2             4    7     1       0.1295712536E-01       5    8    1         0.7264069845E+00      0.1767393962E+01
          0                 4           2             4    7     1      -0.5155769728E-03       5    8    1        -0.2970705336E-01      0.7228244094E-01
          0                 5           1             4    7     1       0.6357286185E-05       5    8    1         0.3762707654E-03      0.9158684321E-03

    ------------------------------------------------
       NWT REQUIRED            5 OUTER ITERATIONS 
       AND A TOTAL OF          9 INNER ITERATIONS.
    ------------------------------------------------

 NO OUTPUT CONTROL FOR STRESS PERIOD   44   TIME STEP   11
 
 SOLVING FOR HEAD 
                                                   Max.-Head-Change                         Max.-Flux-Residual
  Residual-Control   Outer-Iter.   Inner-Iter.     Column Row Layer    Maximum-Head-Change  Column Row Layer    Maximum-Flux-Residual          L2-NORM 
          0                 1           2             5    8     1       0.7278223152E-01       5    8    1         0.3963801245E+01      0.8873259406E+01
          0                 2           2             4    7     1      -0.1904357450E+00       5    8    1        -0.1039127941E+02      0.2527766748E+02
          0                 3           2             4    7     1       0.1296603089E-01       5    8    1         0.7272553944E+00      0.1769137547E+01
          0                 4           2             4    7     1      -0.5159313281E-03       5    8    1        -0.2974215783E-01      0.7235466559E-01
          0                 5           1             4    7     1       0.6361655660E-05       5    8    1         0.3767431449E-03      0.9168079203E-03

    ------------------------------------------------
       NWT REQUIRED            5 OUTER ITERATIONS 
       AND A TOTAL OF          9 INNER ITERATIONS.
    ------------------------------------------------

 NO OUTPUT CONTROL FOR STRESS PERIOD   44   TIME STEP   12
 
 SOLVING FOR HEAD 
                                                   Max.-Head-Change                         Max.-Flux-Residual
  Residual-Control   Outer-Iter.   Inner-Iter.     Column Row Layer    Maximum-Head-Change  Column Row Layer    Maximum-Flux-Residual          L2-NORM 
          0                 1           2             5    8     1       0.7489139477E-01       5    8    1         0.4078721942E+01      0.9149704141E+01
          0                 2           2             4    7     1      -0.1905674374E+00       5    8    1        -0.1040277120E+02      0.2530169750E+02
          0                 3           2             4    7     1       0.1297499934E-01       5    8    1         0.7280637203E+00      0.1770827366E+01
          0                 4           2             4    7     1      -0.5162881878E-03       5    8    1        -0.2977559548E-01      0.7242444999E-01
          0                 5           1             4    7     1       0.6366055602E-05       5    8    1         0.3771924951E-03      0.9177165471E-03

    ------------------------------------------------
       NWT REQUIRED            5 OUTER ITERATIONS 
       AND A TOTAL OF          9 INNER ITERATIONS.
    ------------------------------------------------

 NO OUTPUT CONTROL FOR STRESS PERIOD   44   TIME STEP   13
 
 SOLVING FOR HEAD 
                                                   Max.-Head-Change                         Max.-Flux-Residual
  Residual-Control   Outer-Iter.   Inner-Iter.     Column Row Layer    Maximum-Head-Change  Column Row Layer    Maximum-Flux-Residual          L2-NORM 
          0                 1           2             5    8     1       0.7690468224E-01       5    8    1         0.4188324072E+01      0.9416403289E+01
          0                 2           2             4    7     1      -0.1906998266E+00       5    8    1        -0.1041373114E+02      0.2532503516E+02
          0                 3           2             4    7     1       0.1298401515E-01       5    8    1         0.7288345658E+00      0.1772466346E+01
          0                 4           2             4    7     1      -0.5166469324E-03       5    8    1        -0.2980747575E-01      0.7249194382E-01
          0                 5           1             4    7     1       0.6370479516E-05       5    8    1         0.3776204785E-03      0.9185875594E-03

    ------------------------------------------------
       NWT REQUIRED            5 OUTER ITERATIONS 
       AND A TOTAL OF          9 INNER ITERATIONS.
    ------------------------------------------------

 NO OUTPUT CONTROL FOR STRESS PERIOD   44   TIME STEP   14
 
 SOLVING FOR HEAD 
                                                   Max.-Head-Change                         Max.-Flux-Residual
  Residual-Control   Outer-Iter.   Inner-Iter.     Column Row Layer    Maximum-Head-Change  Column Row Layer    Maximum-Flux-Residual          L2-NORM 
          0                 1           2             5    8     1       0.7882802608E-01       5    8    1         0.4292939517E+01      0.9673812002E+01
          0                 2           2             4    7     1      -0.1908327086E+00       5    8    1        -0.1042419242E+02      0.2534770271E+02
          0                 3           2             4    7     1       0.1299306442E-01       5    8    1         0.7295702616E+00      0.1774057903E+01
          0                 4           2             4    7     1      -0.5170070092E-03       5    8    1        -0.2983789471E-01      0.7255746257E-01
          0                 5           1             4    7     1       0.6374919336E-05       5    8    1         0.3780283300E-03      0.9194342179E-03

    ------------------------------------------------
       NWT REQUIRED            5 OUTER ITERATIONS 
       AND A TOTAL OF          9 INNER ITERATIONS.
    ------------------------------------------------

 NO OUTPUT CONTROL FOR STRESS PERIOD   44   TIME STEP   15
 
 SOLVING FOR HEAD 
                                                   Max.-Head-Change                         Max.-Flux-Residual
  Residual-Control   Outer-Iter.   Inner-Iter.     Column Row Layer    Maximum-Head-Change  Column Row Layer    Maximum-Flux-Residual          L2-NORM 
          0                 1           2             5    8     1       0.8066690154E-01       5    8    1         0.4392875395E+01      0.9922318217E+01
          0                 2           2             4    7     1      -0.1909658895E+00       5    8    1        -0.1043418574E+02      0.2536972783E+02
          0                 3           2             4    7     1       0.1300213397E-01       5    8    1         0.7302729776E+00      0.1775604326E+01
          0                 4           2             4    7     1      -0.5173678932E-03       5    8    1        -0.2986694305E-01      0.7262113137E-01
          0                 5           1             4    7     1       0.6379369238E-05       5    8    1         0.3784173268E-03      0.9202741064E-03

    ------------------------------------------------
       NWT REQUIRED            5 OUTER ITERATIONS 
       AND A TOTAL OF          9 INNER ITERATIONS.
    ------------------------------------------------

 NO OUTPUT CONTROL FOR STRESS PERIOD   44   TIME STEP   16
 
 SOLVING FOR HEAD 
                                                   Max.-Head-Change                         Max.-Flux-Residual
  Residual-Control   Outer-Iter.   Inner-Iter.     Column Row Layer    Maximum-Head-Change  Column Row Layer    Maximum-Flux-Residual          L2-NORM 
          0                 1           2             5    8     1       0.8242665504E-01       5    8    1         0.4488431330E+01      0.1016237035E+02
          0                 2           2             4    7     1      -0.1910992047E+00       5    8    1        -0.1044374107E+02      0.2539113792E+02
          0                 3           2             4    7     1       0.1301121259E-01       5    8    1         0.7309448270E+00      0.1777107526E+01
          0                 4           2             4    7     1      -0.5177291378E-03       5    8    1        -0.2989470876E-01      0.7268302547E-01
          0                 5           1             4    7     1       0.6383823508E-05       5    8    1         0.3787887113E-03      0.9210682392E-03

    ------------------------------------------------
       NWT REQUIRED            5 OUTER ITERATIONS 
       AND A TOTAL OF          9 INNER ITERATIONS.
    ------------------------------------------------

 NO OUTPUT CONTROL FOR STRESS PERIOD   44   TIME STEP   17
 
 SOLVING FOR HEAD 
                                                   Max.-Head-Change                         Max.-Flux-Residual
  Residual-Control   Outer-Iter.   Inner-Iter.     Column Row Layer    Maximum-Head-Change  Column Row Layer    Maximum-Flux-Residual          L2-NORM 
          0                 1           2             5    8     1       0.8411183407E-01       5    8    1         0.4579861169E+01      0.1039435777E+02
          0                 2           2             4    7     1      -0.1912324765E+00       5    8    1        -0.1045288379E+02      0.2541195653E+02
          0                 3           2             4    7     1       0.1302028819E-01       5    8    1         0.7315870805E+00      0.1778568060E+01
          0                 4           2             4    7     1      -0.5180902630E-03       5    8    1        -0.2992119414E-01      0.7274305859E-01
          0                 5           1             4    7     1       0.6388276097E-05       5    8    1         0.3791391148E-03      0.9218460273E-03

    ------------------------------------------------
       NWT REQUIRED            5 OUTER ITERATIONS 
       AND A TOTAL OF          9 INNER ITERATIONS.
    ------------------------------------------------

 NO OUTPUT CONTROL FOR STRESS PERIOD   44   TIME STEP   18
 
 SOLVING FOR HEAD 
                                                   Max.-Head-Change                         Max.-Flux-Residual
  Residual-Control   Outer-Iter.   Inner-Iter.     Column Row Layer    Maximum-Head-Change  Column Row Layer    Maximum-Flux-Residual          L2-NORM 
          0                 1           2             5    8     1       0.8572720212E-01       5    8    1         0.4667431853E+01      0.1061867924E+02
          0                 2           2             4    7     1      -0.1913655545E+00       5    8    1        -0.1046164060E+02      0.2543220758E+02
          0                 3           2             4    7     1       0.1302935052E-01       5    8    1         0.7322013745E+00      0.1779986617E+01
          0                 4           2             4    7     1      -0.5184508611E-03       5    8    1        -0.2994644480E-01      0.7280116191E-01
          0                 5           1             4    7     1       0.6392722750E-05       5    8    1         0.3794676877E-03      0.9225861068E-03

    ------------------------------------------------
       NWT REQUIRED            5 OUTER ITERATIONS 
       AND A TOTAL OF          9 INNER ITERATIONS.
    ------------------------------------------------

 NO OUTPUT CONTROL FOR STRESS PERIOD   44   TIME STEP   19
 
 SOLVING FOR HEAD 
                                                   Max.-Head-Change                         Max.-Flux-Residual
  Residual-Control   Outer-Iter.   Inner-Iter.     Column Row Layer    Maximum-Head-Change  Column Row Layer    Maximum-Flux-Residual          L2-NORM 
          0                 1           2             5    8     1       0.8727690171E-01       5    8    1         0.4751374792E+01      0.1083568289E+02
          0                 2           2             4    7     1      -0.1914983128E+00       5    8    1        -0.1047003464E+02      0.2545191282E+02
          0                 3           2             4    7     1       0.1303839102E-01       5    8    1         0.7327902543E+00      0.1781366968E+01
          0                 4           2             4    7     1      -0.5188105899E-03       5    8    1        -0.2997065392E-01      0.7285770410E-01
          0                 5           1             4    7     1       0.6397157978E-05       5    8    1         0.3797829190E-03      0.9233066109E-03

    ------------------------------------------------
       NWT REQUIRED            5 OUTER ITERATIONS 
       AND A TOTAL OF          9 INNER ITERATIONS.
    ------------------------------------------------

 NO OUTPUT CONTROL FOR STRESS PERIOD   44   TIME STEP   20
 
 SOLVING FOR HEAD 
                                                   Max.-Head-Change                         Max.-Flux-Residual
  Residual-Control   Outer-Iter.   Inner-Iter.     Column Row Layer    Maximum-Head-Change  Column Row Layer    Maximum-Flux-Residual          L2-NORM 
          0                 1           2             5    8     1       0.8876469500E-01       5    8    1         0.4831891434E+01      0.1104571000E+02
          0                 2           2             4    7     1      -0.1916305985E+00       5    8    1        -0.1047808606E+02      0.2547109283E+02
          0                 3           2             4    7     1       0.1304739928E-01       5    8    1         0.7333549220E+00      0.1782710397E+01
          0                 4           2             4    7     1      -0.5191690367E-03       5    8    1        -0.2999385079E-01      0.7291272368E-01
          0                 5           1             4    7     1       0.6401577859E-05       5    8    1         0.3800838285E-03      0.9240076937E-03

    ------------------------------------------------
       NWT REQUIRED            5 OUTER ITERATIONS 
       AND A TOTAL OF          9 INNER ITERATIONS.
    ------------------------------------------------

 NO OUTPUT CONTROL FOR STRESS PERIOD   44   TIME STEP   21
 
 SOLVING FOR HEAD 
                                                   Max.-Head-Change                         Max.-Flux-Residual
  Residual-Control   Outer-Iter.   Inner-Iter.     Column Row Layer    Maximum-Head-Change  Column Row Layer    Maximum-Flux-Residual          L2-NORM 
          0                 1           2             5    8     1       0.9019419801E-01       5    8    1         0.4909194351E+01      0.1124906788E+02
          0                 2           2             4    7     1      -0.1917623219E+00       5    8    1        -0.1048581611E+02      0.2548976913E+02
          0                 3           2             4    7     1       0.1305636921E-01       5    8    1         0.7338970665E+00      0.1784018554E+01
          0                 4           2             4    7     1      -0.5195259582E-03       5    8    1        -0.3001612353E-01      0.7296630042E-01
          0                 5           1             4    7     1       0.6405978922E-05       5    8    1         0.3803728202E-03      0.9246908341E-03

    ------------------------------------------------
       NWT REQUIRED            5 OUTER ITERATIONS 
       AND A TOTAL OF          9 INNER ITERATIONS.
    ------------------------------------------------

 NO OUTPUT CONTROL FOR STRESS PERIOD   44   TIME STEP   22
 
 SOLVING FOR HEAD 
                                                   Max.-Head-Change                         Max.-Flux-Residual
  Residual-Control   Outer-Iter.   Inner-Iter.     Column Row Layer    Maximum-Head-Change  Column Row Layer    Maximum-Flux-Residual          L2-NORM 
          0                 1           2             5    8     1       0.9156900651E-01       5    8    1         0.4983470943E+01      0.1144607662E+02
          0                 2           2             4    7     1      -0.1918933639E+00       5    8    1        -0.1049324354E+02      0.2550795882E+02
          0                 3           2             4    7     1       0.1306529268E-01       5    8    1         0.7344179547E+00      0.1785292601E+01
          0                 4           2             4    7     1      -0.5198810311E-03       5    8    1        -0.3003752010E-01      0.7301847877E-01
          0                 5           1             4    7     1       0.6410357022E-05       5    8    1         0.3806502625E-03      0.9253563212E-03

    ------------------------------------------------
       NWT REQUIRED            5 OUTER ITERATIONS 
       AND A TOTAL OF          9 INNER ITERATIONS.
    ------------------------------------------------

 NO OUTPUT CONTROL FOR STRESS PERIOD   44   TIME STEP   23
 
 SOLVING FOR HEAD 
                                                   Max.-Head-Change                         Max.-Flux-Residual
  Residual-Control   Outer-Iter.   Inner-Iter.     Column Row Layer    Maximum-Head-Change  Column Row Layer    Maximum-Flux-Residual          L2-NORM 
          0                 1           2             5    8     1       0.9289235661E-01       5    8    1         0.5054915116E+01      0.1163701481E+02
          0                 2           2             4    7     1      -0.1920236282E+00       5    8    1        -0.1050038773E+02      0.2552568290E+02
          0                 3           2             4    7     1       0.1307416315E-01       5    8    1         0.7349189487E+00      0.1786534010E+01
          0                 4           2             4    7     1      -0.5202339959E-03       5    8    1        -0.3005809635E-01      0.7306931873E-01
          0                 5           1             4    7     1       0.6414709358E-05       5    8    1         0.3809168379E-03      0.9260046153E-03

    ------------------------------------------------
       NWT REQUIRED            5 OUTER ITERATIONS 
       AND A TOTAL OF          9 INNER ITERATIONS.
    ------------------------------------------------

 NO OUTPUT CONTROL FOR STRESS PERIOD   44   TIME STEP   24
 
 SOLVING FOR HEAD 
                                                   Max.-Head-Change                         Max.-Flux-Residual
  Residual-Control   Outer-Iter.   Inner-Iter.     Column Row Layer    Maximum-Head-Change  Column Row Layer    Maximum-Flux-Residual          L2-NORM 
          0                 1           2             5    8     1       0.9416667813E-01       5    8    1         0.5123661247E+01      0.1182218997E+02
          0                 2           2             4    7     1      -0.1921530276E+00       5    8    1        -0.1050726212E+02      0.2554295691E+02
          0                 3           2             4    7     1       0.1308297467E-01       5    8    1         0.7354009938E+00      0.1787743869E+01
          0                 4           2             4    7     1      -0.5205846150E-03       5    8    1        -0.3007789149E-01      0.7311886483E-01
          0                 5           1             4    7     1       0.6419032683E-05       5    8    1         0.3811730835E-03      0.9266362379E-03

    ------------------------------------------------
       NWT REQUIRED            5 OUTER ITERATIONS 
       AND A TOTAL OF          9 INNER ITERATIONS.
    ------------------------------------------------

 NO OUTPUT CONTROL FOR STRESS PERIOD   44   TIME STEP   25
 
 SOLVING FOR HEAD 
                                                   Max.-Head-Change                         Max.-Flux-Residual
  Residual-Control   Outer-Iter.   Inner-Iter.     Column Row Layer    Maximum-Head-Change  Column Row Layer    Maximum-Flux-Residual          L2-NORM 
          0                 1           2             5    8     1       0.9539505661E-01       5    8    1         0.5189880571E+01      0.1200187204E+02
          0                 2           2             4    7     1      -0.1922814834E+00       5    8    1        -0.1051388383E+02      0.2555979856E+02
          0                 3           2             4    7     1       0.1309172191E-01       5    8    1         0.7358652930E+00      0.1788923422E+01
          0                 4           2             4    7     1      -0.5209326764E-03       5    8    1        -0.3009695511E-01      0.7316716805E-01
          0                 5           1             4    7     1       0.6423324531E-05       5    8    1         0.3814197041E-03      0.9272522289E-03

    ------------------------------------------------
       NWT REQUIRED            5 OUTER ITERATIONS 
       AND A TOTAL OF          9 INNER ITERATIONS.
    ------------------------------------------------

 NO OUTPUT CONTROL FOR STRESS PERIOD   44   TIME STEP   26
 
 SOLVING FOR HEAD 
                                                   Max.-Head-Change                         Max.-Flux-Residual
  Residual-Control   Outer-Iter.   Inner-Iter.     Column Row Layer    Maximum-Head-Change  Column Row Layer    Maximum-Flux-Residual          L2-NORM 
          0                 1           2             5    8     1       0.9657980738E-01       5    8    1         0.5253701968E+01      0.1217630219E+02
          0                 2           2             4    7     1      -0.1924089119E+00       5    8    1        -0.1052026576E+02      0.2557622322E+02
          0                 3           2             4    7     1       0.1310039915E-01       5    8    1         0.7363122688E+00      0.1790073347E+01
          0                 4           2             4    7     1      -0.5212779528E-03       5    8    1        -0.3011525723E-01      0.7321421702E-01
          0                 5           1             4    7     1       0.6427581767E-05       5    8    1         0.3816530591E-03      0.9278502944E-03

    ------------------------------------------------
       NWT REQUIRED            5 OUTER ITERATIONS 
       AND A TOTAL OF          9 INNER ITERATIONS.
    ------------------------------------------------

 NO OUTPUT CONTROL FOR STRESS PERIOD   44   TIME STEP   27
 
 SOLVING FOR HEAD 
                                                   Max.-Head-Change                         Max.-Flux-Residual
  Residual-Control   Outer-Iter.   Inner-Iter.     Column Row Layer    Maximum-Head-Change  Column Row Layer    Maximum-Flux-Residual          L2-NORM 
          0                 1           2             5    8     1       0.9772336456E-01       5    8    1         0.5315261044E+01      0.1234570067E+02
          0                 2           2             4    7     1      -0.1925352497E+00       5    8    1        -0.1052642146E+02      0.2559224522E+02
          0                 3           2             4    7     1       0.1310900210E-01       5    8    1         0.7367431853E+00      0.1791194902E+01
          0                 4           2             4    7     1      -0.5216202732E-03       5    8    1        -0.3013288165E-01      0.7326009236E-01
          0                 5           1             4    7     1       0.6431803046E-05       5    8    1         0.3818764144E-03      0.9287572052E-03

    ------------------------------------------------
       NWT REQUIRED            5 OUTER ITERATIONS 
       AND A TOTAL OF          9 INNER ITERATIONS.
    ------------------------------------------------

 NO OUTPUT CONTROL FOR STRESS PERIOD   44   TIME STEP   28
 
 SOLVING FOR HEAD 
                                                   Max.-Head-Change                         Max.-Flux-Residual
  Residual-Control   Outer-Iter.   Inner-Iter.     Column Row Layer    Maximum-Head-Change  Column Row Layer    Maximum-Flux-Residual          L2-NORM 
          0                 1           2             5    8     1       0.9882771879E-01       5    8    1         0.5374668470E+01      0.1251028889E+02
          0                 2           2             4    7     1      -0.1926604536E+00       5    8    1        -0.1053236199E+02      0.2560787907E+02
          0                 3           2             4    7     1       0.1311752779E-01       5    8    1         0.7371590404E+00      0.1792289285E+01
          0                 4           2             4    7     1      -0.5219595193E-03       5    8    1        -0.3014989008E-01      0.7330484895E-01
          0                 5           1             4    7     1       0.6435985904E-05       5    8    1         0.3820919690E-03      0.9289982288E-03

    ------------------------------------------------
       NWT REQUIRED            5 OUTER ITERATIONS 
       AND A TOTAL OF          9 INNER ITERATIONS.
    ------------------------------------------------

 NO OUTPUT CONTROL FOR STRESS PERIOD   44   TIME STEP   29
 
 SOLVING FOR HEAD 
                                                   Max.-Head-Change                         Max.-Flux-Residual
  Residual-Control   Outer-Iter.   Inner-Iter.     Column Row Layer    Maximum-Head-Change  Column Row Layer    Maximum-Flux-Residual          L2-NORM 
          0                 1           2             5    8     1       0.9989529703E-01       5    8    1         0.5432058548E+01      0.1267028134E+02
          0                 2           2             4    7     1      -0.1927845162E+00       5    8    1        -0.1053793625E+02      0.2562314037E+02
          0                 3           2             4    7     1       0.1312597576E-01       5    8    1         0.7375492575E+00      0.1793357588E+01
          0                 4           2             4    7     1      -0.5222956726E-03       5    8    1        -0.3016584988E-01      0.7334854249E-01
          0                 5           1             4    7     1       0.6440130453E-05       5    8    1         0.3822942379E-03      0.9295525957E-03

    ------------------------------------------------
       NWT REQUIRED            5 OUTER ITERATIONS 
       AND A TOTAL OF          9 INNER ITERATIONS.
    ------------------------------------------------

 NO OUTPUT CONTROL FOR STRESS PERIOD   44   TIME STEP   30



 STREAM LISTING     PERIOD     44   STEP       30

 LAYER ROW COL. STREAM  RCH.  FLOW INTO     FLOW TO   FLOW OUT OF   OVRLND.     DIRECT     STREAM       STREAM     STREAM     STREAM   STREAMBED  STREAMBED
                SEG.NO.  NO.  STRM. RCH.    AQUIFER    STRM. RCH.    RUNOFF     PRECIP       ET          HEAD       DEPTH      WIDTH   CONDCTNC.   GRADIENT

   1    1    1     1     1    1.9000E+01  2.1427E-01   1.8786E+01  0.000E+00  0.000E+00  0.000E+00  1.09413E+03  1.082E+00  1.166E+01  5.249E-02  1.361E+00
   1    2    2     1     2    1.8786E+01  3.3054E-01   1.8455E+01  0.000E+00  0.000E+00  0.000E+00  1.08914E+03  1.077E+00  1.158E+01  8.107E-02  1.359E+00
   1    3    3     1     3    1.8455E+01  2.8064E-01   1.8175E+01  0.000E+00  0.000E+00  0.000E+00  1.08349E+03  1.072E+00  1.149E+01  6.892E-02  1.357E+00
   1    3    4     1     4    1.8175E+01  2.5740E-01   1.7917E+01  0.000E+00  0.000E+00  0.000E+00  1.07848E+03  1.068E+00  1.140E+01  6.328E-02  1.356E+00
   1    4    5     2     1    1.5917E+01  3.0542E-01   1.5612E+01  0.000E+00  0.000E+00  0.000E+00  1.07285E+03  9.157E-01  1.200E+01  7.800E-02  1.305E+00
   1    5    6     2     2    1.5612E+01  2.3438E-01   1.5377E+01  0.000E+00  0.000E+00  0.000E+00  1.06742E+03  9.063E-01  1.200E+01  6.000E-02  1.302E+00
   1    6    6     2     3    1.5377E+01  2.3388E-01   1.5143E+01  0.000E+00  0.000E+00  0.000E+00  1.06269E+03  8.980E-01  1.200E+01  6.000E-02  1.299E+00
   1    7    6     2     4    1.5143E+01  2.3338E-01   1.4910E+01  0.000E+00  0.000E+00  0.000E+00  1.05797E+03  8.897E-01  1.200E+01  6.000E-02  1.297E+00
   1    8    6     2     5    1.4910E+01  2.3289E-01   1.4677E+01  0.000E+00  0.000E+00  0.000E+00  1.05324E+03  8.814E-01  1.200E+01  6.000E-02  1.294E+00
   1    3    5     3     1    2.0000E+00  2.8252E-01   1.7175E+00  0.000E+00  0.000E+00  0.000E+00  1.07555E+03  1.909E+00  9.636E+00  7.227E-02  1.955E+00
   1    3    6     3     2    1.7175E+00  2.4905E-01   1.4684E+00  0.000E+00  0.000E+00  0.000E+00  1.07264E+03  1.727E+00  8.909E+00  6.682E-02  1.864E+00
   1    3    7     3     3    1.4684E+00  1.9718E-01   1.2712E+00  0.000E+00  0.000E+00  0.000E+00  1.06987E+03  1.555E+00  8.218E+00  5.547E-02  1.777E+00
   1    4    8     3     4    1.2712E+00  2.2567E-01   1.0456E+00  0.000E+00  0.000E+00  0.000E+00  1.06682E+03  1.364E+00  7.455E+00  6.709E-02  1.682E+00
   1    5    8     3     5    1.0456E+00  1.5790E-01   8.8768E-01  0.000E+00  0.000E+00  0.000E+00  1.06362E+03  1.164E+00  6.655E+00  4.991E-02  1.582E+00
   1    6    8     3     6    8.8768E-01  5.5980E-02   8.3170E-01  0.000E+00  0.000E+00  0.000E+00  1.06158E+03  1.036E+00  6.145E+00  1.844E-02  1.518E+00
   1    5   10     4     1    1.0000E+01  9.0919E-02   9.9091E+00  0.000E+00  0.000E+00  0.000E+00  1.07836E+03  6.368E-01  1.000E+01  2.500E-02  1.212E+00
   1    5    9     4     2    9.9091E+00  1.8158E-01   9.7275E+00  0.000E+00  0.000E+00  0.000E+00  1.07154E+03  6.315E-01  1.000E+01  5.000E-02  1.211E+00
   1    6    8     4     3    9.7275E+00  1.2689E-01   9.6006E+00  0.000E+00  0.000E+00  0.000E+00  1.06381E+03  6.256E-01  1.000E+01  3.500E-02  1.209E+00
   1    6    8     5     1    1.0432E+01  2.2686E-01   1.0205E+01  0.000E+00  0.000E+00  0.000E+00  1.05868E+03  6.790E-01  1.542E+01  6.166E-02  1.226E+00
   1    7    7     5     2    1.0205E+01  2.7894E-01   9.9265E+00  0.000E+00  0.000E+00  0.000E+00  1.05417E+03  6.732E-01  1.519E+01  7.594E-02  1.224E+00
   1    8    7     5     3    9.9265E+00  1.9221E-01   9.7343E+00  0.000E+00  0.000E+00  0.000E+00  1.04992E+03  6.676E-01  1.497E+01  5.241E-02  1.223E+00
   1    8    6     5     4    9.7343E+00  1.3577E-01   9.5985E+00  0.000E+00  0.000E+00  0.000E+00  1.04691E+03  6.637E-01  1.482E+01  3.706E-02  1.221E+00
   1    9    6     6     1    2.4276E+01  2.5176E-01   2.4024E+01  0.000E+00  0.000E+00  0.000E+00  1.04392E+03  1.196E+00  1.200E+01  6.000E-02  1.399E+00
   1   10    7     6     2    2.4024E+01  2.5131E-01   2.3773E+01  0.000E+00  0.000E+00  0.000E+00  1.03937E+03  1.188E+00  1.200E+01  6.000E-02  1.396E+00
   1   11    7     6     3    2.3773E+01  2.5086E-01   2.3522E+01  0.000E+00  0.000E+00  0.000E+00  1.03482E+03  1.181E+00  1.200E+01  6.000E-02  1.394E+00
   1   12    7     6     4    2.3522E+01  2.5041E-01   2.3271E+01  0.000E+00  0.000E+00  0.000E+00  1.03026E+03  1.173E+00  1.200E+01  6.000E-02  1.391E+00
   1   13    7     6     5    2.3271E+01  1.1491E-02   2.3260E+01  0.000E+00  0.000E+00  0.000E+00  1.02708E+03  1.169E+00  1.200E+01  2.400E-02  1.596E-01
   1   14    9     7     1    1.5000E+02  1.3737E+00   1.4863E+02  0.000E+00  0.000E+00  0.000E+00  1.03987E+03  2.288E+00  5.529E+01  5.593E-01  8.187E-01
   1   13    8     7     2    1.4863E+02  1.9792E+00   1.4665E+02  0.000E+00  0.000E+00  0.000E+00  1.03478E+03  2.279E+00  5.525E+01  6.147E-01  1.073E+00
   1   13    7     7     3    1.4665E+02  1.7244E+00   1.4492E+02  0.000E+00  0.000E+00  0.000E+00  1.02969E+03  2.269E+00  5.521E+01  5.584E-01  1.029E+00
   1   13    6     8     1    1.6818E+02  1.1555E+00   1.6703E+02  0.000E+00  0.000E+00  0.000E+00  1.02481E+03  2.937E+00  4.258E+01  4.339E-01  8.877E-01
   1   13    5     8     2    1.6703E+02  3.8863E-01   1.6664E+02  0.000E+00  0.000E+00  0.000E+00  1.01856E+03  2.931E+00  4.251E+01  4.332E-01  2.991E-01
   1   13    4     8     3    1.6664E+02 -1.7301E+00   1.6837E+02  0.000E+00  0.000E+00  0.000E+00  1.01231E+03  2.936E+00  4.257E+01  4.338E+00 -1.329E-01
   1   13    3     8     4    1.6837E+02 -3.2981E+00   1.7167E+02  0.000E+00  0.000E+00  0.000E+00  1.00608E+03  2.952E+00  4.281E+01  4.362E+00 -2.520E-01
   1   13    2     8     5    1.7167E+02 -2.4879E+00   1.7415E+02  0.000E+00  0.000E+00  0.000E+00  9.99846E+02  2.971E+00  4.308E+01  4.390E+00 -1.889E-01
   1   13    1     8     6    1.7415E+02 -1.9588E+00   1.7611E+02  0.000E+00  0.000E+00  0.000E+00  9.94860E+02  2.985E+00  4.329E+01  2.647E+00 -2.467E-01





UNSATURATED ZONE PACKAGE VOLUMETRIC BUDGET FOR  TIME STEP    30 STRESS PERIOD   44
  ------------------------------------------------------------------------------



     CUMULATIVE VOLUMES      L**3       RATES FOR THIS TIME STEP      L**3/T
     ------------------                 ------------------------

           IN:                                      IN:
           ---                                      ---
        INFILTRATION =  1553868490.6436          INFILTRATION =          60.8175

          OUT:                                     OUT:
          ----                                     ----
              UZF ET =  1553006241.8010                UZF ET =          60.8175
        UZF RECHARGE =       73224.0000          UZF RECHARGE =       0.0000E+00

            IN - OUT =      789024.8426              IN - OUT =       0.0000E+00

          STORAGE:                                 STORAGE:
          --------                                 --------
      STORAGE CHANGE =      789015.6876        STORAGE CHANGE =       4.0772E-15

 PERCENT DISCREPANCY IS DIFFERENCE BETWEEN IN-OUT MINUS CHANGE IN STORAGE
 DIVIDED BY THE AVERAGE OF IN AND OUT TIMES 100

 PERCENT DISCREPANCY =           0.00     PERCENT DISCREPANCY =           0.00






1
  VOLUMETRIC BUDGET FOR AGRICULTURAL FIELDS AT  END OF TIME STEP   30, STRESS PERIOD  44
  ------------------------------------------------------------------------------

     CUMULATIVE VOLUMES      L**3       RATES FOR THIS TIME STEP      L**3/T
     ------------------                 ------------------------

           IN:                                      IN:
           ---                                      ---
               AG WELLS  =  1457945984.0000                 AG WELLS  =          59.9700
      DIVERSION SEGMENTS =           0.0000        DIVERSION SEGMENTS =           0.0000
       IRRIGATION PONDS  =           0.0000         IRRIGATION PONDS  =           0.0000
           GW IRRIGATION =           0.0000             GW IRRIGATION =           0.0000
           SW IRRIGATION =           0.0000             SW IRRIGATION =           0.0000
        SYSTEM LOSSES GW =           0.0000          SYSTEM LOSSES GW =           0.0000
        SYSTEM LOSSES SW =           0.0000          SYSTEM LOSSES SW =           0.0000

                TOTAL IN =  1457945984.0000                  TOTAL IN =          59.9700

          OUT:                                     OUT:
          ----                                     ----
               AG WELLS  =           0.0000                 AG WELLS  =           0.0000
      DIVERSION SEGMENTS =           0.0000        DIVERSION SEGMENTS =           0.0000
       IRRIGATION PONDS  =           0.0000         IRRIGATION PONDS  =           0.0000
           GW IRRIGATION =  1457945984.0000             GW IRRIGATION =          59.9700
           SW IRRIGATION =           0.0000             SW IRRIGATION =           0.0000
        SYSTEM LOSSES GW =           0.0000          SYSTEM LOSSES GW =           0.0000
        SYSTEM LOSSES SW =           0.0000          SYSTEM LOSSES SW =           0.0000

               TOTAL OUT =  1457945984.0000                 TOTAL OUT =          59.9700

                IN - OUT =           0.0000                  IN - OUT =           0.0000

     PERCENT DISCREPANCY =           0.00         PERCENT DISCREPANCY =           0.00



1
  VOLUMETRIC BUDGET FOR ENTIRE MODEL AT END OF TIME STEP   30, STRESS PERIOD  44
  ------------------------------------------------------------------------------

     CUMULATIVE VOLUMES      L**3       RATES FOR THIS TIME STEP      L**3/T
     ------------------                 ------------------------

           IN:                                      IN:
           ---                                      ---
             STORAGE     =  1927733632.0000               STORAGE     =          57.1017
       CONSTANT HEAD     =           0.0000         CONSTANT HEAD     =           0.0000
     HEAD DEP BOUNDS     =    32387678.0000       HEAD DEP BOUNDS     =           0.2883
      STREAM LEAKAGE     =  1386634624.0000        STREAM LEAKAGE     =          12.3616
        UZF RECHARGE     =       73223.9531          UZF RECHARGE     =           0.0000
               GW ET     =           0.0000                 GW ET     =           0.0000
     SURFACE LEAKAGE     =           0.0000       SURFACE LEAKAGE     =           0.0000
           AG WELLS      =           0.0000             AG WELLS      =           0.0000

                TOTAL IN =  3346829312.0000                  TOTAL IN =          69.7517

          OUT:                                     OUT:
          ----                                     ----
             STORAGE     =   690986496.0000               STORAGE     =       1.7860E-02
       CONSTANT HEAD     =           0.0000         CONSTANT HEAD     =           0.0000
     HEAD DEP BOUNDS     =    33031792.0000       HEAD DEP BOUNDS     =           0.2888
      STREAM LEAKAGE     =  1147263744.0000        STREAM LEAKAGE     =           9.4749
        UZF RECHARGE     =           0.0000          UZF RECHARGE     =           0.0000
               GW ET     =    17603406.0000                 GW ET     =           0.0000
     SURFACE LEAKAGE     =           0.0000       SURFACE LEAKAGE     =           0.0000
           AG WELLS      =  1457945984.0000             AG WELLS      =          59.9700

               TOTAL OUT =  3346831360.0000                 TOTAL OUT =          69.7516

                IN - OUT =       -2048.0000                  IN - OUT =       3.0518E-05

     PERCENT DISCREPANCY =          -0.00         PERCENT DISCREPANCY =           0.00






         TIME SUMMARY AT END OF TIME STEP   30 IN STRESS PERIOD   44
                    SECONDS     MINUTES      HOURS       DAYS        YEARS
                    -----------------------------------------------------------
   TIME STEP LENGTH  87667.      1461.1      24.352      1.0147     2.77799E-03
 STRESS PERIOD TIME 2.63000E+06  43833.      730.56      30.440     8.33397E-02
         TOTAL TIME 1.13175E+08 1.88626E+06  31438.      1309.9      3.5863    
1
1
                            STRESS PERIOD NO.   45, LENGTH =   2630000.    
                            -----------------------------------------------

                              NUMBER OF TIME STEPS =    30

                               MULTIPLIER FOR DELT =     1.000

                            INITIAL TIME STEP SIZE =   87666.66    

 REUSING NON-PARAMETER GHB CELLS FROM LAST STRESS PERIOD

      2 GHB CELLS

 REUSING STREAM SEGMENT DATA FROM LAST STRESS PERIOD



            AREAL INFILTRATION RATE
 READING ON UNIT   19 WITH FORMAT: (FREE)              

            1           2           3           4           5           6           7           8           9          10
 ........................................................................................................................
   1   1.0000E-10  2.0000E-10   0.000       0.000       0.000       0.000       0.000       0.000       0.000       0.000    
   2   2.0000E-10  1.0000E-10  2.0000E-10   0.000       0.000      8.0000E-10  8.0000E-10  5.0000E-10   0.000       0.000    
   3    0.000      5.0000E-10  1.0000E-10  1.0000E-10  8.0000E-10  8.0000E-10  5.0000E-10  5.0000E-10   0.000       0.000    
   4   8.0000E-10  5.0000E-10  1.0000E-10  1.0000E-10  1.0000E-10  1.0000E-10  1.0000E-10  1.0000E-10  2.0000E-10   0.000    
   5   8.0000E-10  5.0000E-10  1.0000E-10  1.0000E-10  1.0000E-10  1.0000E-10  1.0000E-10  1.0000E-10  1.0000E-10  1.0000E-10
   6   8.0000E-10  5.0000E-10  5.0000E-10  2.0000E-10  2.0000E-10  1.0000E-10  1.0000E-10  1.0000E-10  1.0000E-10  5.0000E-10
   7   8.0000E-10  5.0000E-10  5.0000E-10  2.0000E-10  2.0000E-10  1.0000E-10  1.0000E-10  2.0000E-10  2.0000E-10   0.000    
   8    0.000      5.0000E-10  5.0000E-10  2.0000E-10  2.0000E-10  1.0000E-10  1.0000E-10  2.0000E-10  5.0000E-10   0.000    
   9    0.000      5.0000E-10  5.0000E-10  2.0000E-10  2.0000E-10  1.0000E-10  1.0000E-10  2.0000E-10  5.0000E-10   0.000    
  10    0.000      5.0000E-10  5.0000E-10  2.0000E-10  2.0000E-10  1.0000E-10  1.0000E-10  2.0000E-10  5.0000E-10  8.0000E-10
  11    0.000      1.0000E-10  1.0000E-10  1.0000E-10  1.0000E-10  1.0000E-10  1.0000E-10  2.0000E-10  5.0000E-10   0.000    
  12   1.0000E-10  1.0000E-10  1.0000E-10  1.0000E-10  1.0000E-10  1.0000E-10  1.0000E-10  1.0000E-10  2.0000E-10   0.000    
  13   1.0000E-10  1.0000E-10  2.0000E-10  2.0000E-10  2.0000E-10  2.0000E-10  2.0000E-10  1.0000E-10  1.0000E-10   0.000    
  14    0.000      2.0000E-10  5.0000E-10  5.0000E-10  5.0000E-10  5.0000E-10  5.0000E-10  2.0000E-10  1.0000E-10   0.000    
  15    0.000       0.000      8.0000E-10  8.0000E-10  8.0000E-10  8.0000E-10   0.000       0.000       0.000       0.000    

                  ET RATE =  3.250000E-07

 USING ET EXTINCTION DEPTH FROM PREVIOUS STRESS PERIOD. CURRENT PERIOD IS:      45

 USING EXTINCTION WATER CONTENT FROM PREVIOUS STRESS PERIOD. CURRENT PERIOD IS:      45

 USING AIR ENTRY PRESSURE FROM PREVIOUS STRESS PERIOD. CURRENT PERIOD IS:      45

 USING ROOT PRESSURE HEAD FROM PREVIOUS STRESS PERIOD. CURRENT PERIOD IS:      45

 USING ROOT ACTIVITY FROM PREVIOUS STRESS PERIOD. CURRENT PERIOD IS:      45

 PROCESSING AG STRESS PERIOD DATA

 READING AG STRESS PERIOD DATA

 READING IRRIGATION WELL

 NO IRRPOND OR REUSING IRRPOND DATA FROM LAST STRESS PERIOD

 END PROCESSING AG STRESS PERIOD DATA OPTIONS
 
 SOLVING FOR HEAD 
                                                   Max.-Head-Change                         Max.-Flux-Residual
  Residual-Control   Outer-Iter.   Inner-Iter.     Column Row Layer    Maximum-Head-Change  Column Row Layer    Maximum-Flux-Residual          L2-NORM 
          0                 1           2             4    7     1      -0.8714145443E-01       4    7    1        -0.4584080926E+01      0.1015455704E+02
          0                 2           2             4    7     1       0.8476310976E-02       4    7    1         0.4583961710E+00      0.1015447711E+01
          0                 3           2             4    7     1      -0.5772070777E-03       4    7    1        -0.3208785863E-01      0.7108144237E-01
          0                 4           1             4    7     1       0.2296760214E-04       4    7    1         0.1312394726E-02      0.2907232471E-02

    ------------------------------------------------
       NWT REQUIRED            4 OUTER ITERATIONS 
       AND A TOTAL OF          7 INNER ITERATIONS.
    ------------------------------------------------

 NO OUTPUT CONTROL FOR STRESS PERIOD   45   TIME STEP    1
 
 SOLVING FOR HEAD 
                                                   Max.-Head-Change                         Max.-Flux-Residual
  Residual-Control   Outer-Iter.   Inner-Iter.     Column Row Layer    Maximum-Head-Change  Column Row Layer    Maximum-Flux-Residual          L2-NORM 
          0                 1           2             5    8     1       0.1009451154E+00       5    8    1         0.5486475002E+01      0.1286801562E+02
          0                 2           2             5    7     1      -0.1581228098E+00       5    8    1        -0.8668534172E+01      0.2105245787E+02
          0                 3           2             5    7     1       0.1076746653E-01       5    8    1         0.6067915529E+00      0.1473656604E+01
          0                 4           2             5    7     1      -0.4284480926E-03       5    8    1        -0.2481783738E-01      0.6027271368E-01
          0                 5           1             5    7     1       0.5282956935E-05       5    8    1         0.3145184542E-03      0.7638411112E-03

    ------------------------------------------------
       NWT REQUIRED            5 OUTER ITERATIONS 
       AND A TOTAL OF          9 INNER ITERATIONS.
    ------------------------------------------------

 NO OUTPUT CONTROL FOR STRESS PERIOD   45   TIME STEP    2
 
 SOLVING FOR HEAD 
                                                   Max.-Head-Change                         Max.-Flux-Residual
  Residual-Control   Outer-Iter.   Inner-Iter.     Column Row Layer    Maximum-Head-Change  Column Row Layer    Maximum-Flux-Residual          L2-NORM 
          0                 1           2             5    8     1       0.1009712408E+00       5    8    1         0.5486524521E+01      0.1291077103E+02
          0                 2           2             5    7     1      -0.1581834746E+00       5    8    1        -0.8668539068E+01      0.2105826741E+02
          0                 3           2             5    7     1       0.1077159707E-01       5    8    1         0.6067919135E+00      0.1474063246E+01
          0                 4           2             5    7     1      -0.4286124535E-03       5    8    1        -0.2481785204E-01      0.6028934550E-01
          0                 5           1             5    7     1       0.5284983619E-05       5    8    1         0.3145186258E-03      0.7640520181E-03

    ------------------------------------------------
       NWT REQUIRED            5 OUTER ITERATIONS 
       AND A TOTAL OF          9 INNER ITERATIONS.
    ------------------------------------------------

 NO OUTPUT CONTROL FOR STRESS PERIOD   45   TIME STEP    3
 
 SOLVING FOR HEAD 
                                                   Max.-Head-Change                         Max.-Flux-Residual
  Residual-Control   Outer-Iter.   Inner-Iter.     Column Row Layer    Maximum-Head-Change  Column Row Layer    Maximum-Flux-Residual          L2-NORM 
          0                 1           2             5    8     1       0.1010197741E+00       5    8    1         0.5487862953E+01      0.1295427515E+02
          0                 2           2             4    7     1      -0.1582704428E+00       5    8    1        -0.8668673810E+01      0.2106405365E+02
          0                 3           2             4    7     1       0.1077751841E-01       5    8    1         0.6068013623E+00      0.1474468257E+01
          0                 4           2             4    7     1      -0.4288480731E-03       5    8    1        -0.2481823844E-01      0.6030591056E-01
          0                 5           1             4    7     1       0.5287882003E-05       5    8    1         0.3145235371E-03      0.7642619458E-03

    ------------------------------------------------
       NWT REQUIRED            5 OUTER ITERATIONS 
       AND A TOTAL OF          9 INNER ITERATIONS.
    ------------------------------------------------

 NO OUTPUT CONTROL FOR STRESS PERIOD   45   TIME STEP    4
 
 SOLVING FOR HEAD 
                                                   Max.-Head-Change                         Max.-Flux-Residual
  Residual-Control   Outer-Iter.   Inner-Iter.     Column Row Layer    Maximum-Head-Change  Column Row Layer    Maximum-Flux-Residual          L2-NORM 
          0                 1           2             5    8     1       0.1010887718E+00       5    8    1         0.5490378643E+01      0.1299839742E+02
          0                 2           2             4    7     1      -0.1583658561E+00       5    8    1        -0.8668925326E+01      0.2106980887E+02
          0                 3           2             4    7     1       0.1078401496E-01       5    8    1         0.6068189841E+00      0.1474871098E+01
          0                 4           2             4    7     1      -0.4291065802E-03       5    8    1        -0.2481895909E-01      0.6032238705E-01
          0                 5           1             4    7     1       0.5291069497E-05       5    8    1         0.3145326666E-03      0.7644705089E-03

    ------------------------------------------------
       NWT REQUIRED            5 OUTER ITERATIONS 
       AND A TOTAL OF          9 INNER ITERATIONS.
    ------------------------------------------------

 NO OUTPUT CONTROL FOR STRESS PERIOD   45   TIME STEP    5
 
 SOLVING FOR HEAD 
                                                   Max.-Head-Change                         Max.-Flux-Residual
  Residual-Control   Outer-Iter.   Inner-Iter.     Column Row Layer    Maximum-Head-Change  Column Row Layer    Maximum-Flux-Residual          L2-NORM 
          0                 1           2             5    8     1       0.1011763352E+00       5    8    1         0.5493963004E+01      0.1304302899E+02
          0                 2           2             4    7     1      -0.1584723021E+00       5    8    1        -0.8669283711E+01      0.2107552944E+02
          0                 3           2             4    7     1       0.1079126253E-01       5    8    1         0.6068440816E+00      0.1475271513E+01
          0                 4           2             4    7     1      -0.4293949726E-03       5    8    1        -0.2481998554E-01      0.6033876403E-01
          0                 5           1             4    7     1       0.5294625184E-05       5    8    1         0.3145456742E-03      0.7646782706E-03

    ------------------------------------------------
       NWT REQUIRED            5 OUTER ITERATIONS 
       AND A TOTAL OF          9 INNER ITERATIONS.
    ------------------------------------------------

 NO OUTPUT CONTROL FOR STRESS PERIOD   45   TIME STEP    6
 
 SOLVING FOR HEAD 
                                                   Max.-Head-Change                         Max.-Flux-Residual
  Residual-Control   Outer-Iter.   Inner-Iter.     Column Row Layer    Maximum-Head-Change  Column Row Layer    Maximum-Flux-Residual          L2-NORM 
          0                 1           2             5    8     1       0.1012810291E+00       5    8    1         0.5498504756E+01      0.1308809062E+02
          0                 2           2             4    7     1      -0.1585487605E+00       5    8    1        -0.8669737829E+01      0.2108121885E+02
          0                 3           2             4    7     1       0.1079646866E-01       5    8    1         0.6068758878E+00      0.1475669765E+01
          0                 4           2             4    7     1      -0.4296021313E-03       5    8    1        -0.2482128631E-01      0.6035505267E-01
          0                 5           1             4    7     1       0.5297179571E-05       5    8    1         0.3145621733E-03      0.7648864877E-03

    ------------------------------------------------
       NWT REQUIRED            5 OUTER ITERATIONS 
       AND A TOTAL OF          9 INNER ITERATIONS.
    ------------------------------------------------

 NO OUTPUT CONTROL FOR STRESS PERIOD   45   TIME STEP    7
 
 SOLVING FOR HEAD 
                                                   Max.-Head-Change                         Max.-Flux-Residual
  Residual-Control   Outer-Iter.   Inner-Iter.     Column Row Layer    Maximum-Head-Change  Column Row Layer    Maximum-Flux-Residual          L2-NORM 
          0                 1           2             5    8     1       0.1014010214E+00       5    8    1         0.5503939228E+01      0.1313349010E+02
          0                 2           2             4    7     1      -0.1586348485E+00       5    8    1        -0.8670281224E+01      0.2108686686E+02
          0                 3           2             4    7     1       0.1080233030E-01       5    8    1         0.6069139388E+00      0.1476065086E+01
          0                 4           2             4    7     1      -0.4298353743E-03       5    8    1        -0.2482284254E-01      0.6037122138E-01
          0                 5           1             4    7     1       0.5300055664E-05       5    8    1         0.3145818914E-03      0.7650894381E-03

    ------------------------------------------------
       NWT REQUIRED            5 OUTER ITERATIONS 
       AND A TOTAL OF          9 INNER ITERATIONS.
    ------------------------------------------------

 NO OUTPUT CONTROL FOR STRESS PERIOD   45   TIME STEP    8
 
 SOLVING FOR HEAD 
                                                   Max.-Head-Change                         Max.-Flux-Residual
  Residual-Control   Outer-Iter.   Inner-Iter.     Column Row Layer    Maximum-Head-Change  Column Row Layer    Maximum-Flux-Residual          L2-NORM 
          0                 1           2             5    8     1       0.1015345927E+00       5    8    1         0.5510159504E+01      0.1317909634E+02
          0                 2           2             4    7     1      -0.1587189547E+00       5    8    1        -0.8670904154E+01      0.2109247618E+02
          0                 3           2             4    7     1       0.1080805701E-01       5    8    1         0.6069575565E+00      0.1476457717E+01
          0                 4           2             4    7     1      -0.4300632489E-03       5    8    1        -0.2482462646E-01      0.6038728015E-01
          0                 5           1             4    7     1       0.5302865444E-05       5    8    1         0.3146044921E-03      0.7652929943E-03

    ------------------------------------------------
       NWT REQUIRED            5 OUTER ITERATIONS 
       AND A TOTAL OF          9 INNER ITERATIONS.
    ------------------------------------------------

 NO OUTPUT CONTROL FOR STRESS PERIOD   45   TIME STEP    9
 
 SOLVING FOR HEAD 
                                                   Max.-Head-Change                         Max.-Flux-Residual
  Residual-Control   Outer-Iter.   Inner-Iter.     Column Row Layer    Maximum-Head-Change  Column Row Layer    Maximum-Flux-Residual          L2-NORM 
          0                 1           2             5    8     1       0.1016804457E+00       5    8    1         0.5517091542E+01      0.1322483122E+02
          0                 2           2             4    7     1      -0.1588010849E+00       5    8    1        -0.8671597309E+01      0.2109803882E+02
          0                 3           2             4    7     1       0.1081364918E-01       5    8    1         0.6070060891E+00      0.1476847080E+01
          0                 4           2             4    7     1      -0.4302857693E-03       5    8    1        -0.2482661140E-01      0.6040320520E-01
          0                 5           1             4    7     1       0.5305609359E-05       5    8    1         0.3146296360E-03      0.7654949568E-03

    ------------------------------------------------
       NWT REQUIRED            5 OUTER ITERATIONS 
       AND A TOTAL OF          9 INNER ITERATIONS.
    ------------------------------------------------

 NO OUTPUT CONTROL FOR STRESS PERIOD   45   TIME STEP   10
 
 SOLVING FOR HEAD 
                                                   Max.-Head-Change                         Max.-Flux-Residual
  Residual-Control   Outer-Iter.   Inner-Iter.     Column Row Layer    Maximum-Head-Change  Column Row Layer    Maximum-Flux-Residual          L2-NORM 
          0                 1           2             5    8     1       0.1018372647E+00       5    8    1         0.5524660237E+01      0.1327063037E+02
          0                 2           2             4    7     1      -0.1588813357E+00       5    8    1        -0.8672354132E+01      0.2110355590E+02
          0                 3           2             4    7     1       0.1081911339E-01       5    8    1         0.6070590776E+00      0.1477233254E+01
          0                 4           2             4    7     1      -0.4305031981E-03       5    8    1        -0.2482877857E-01      0.6041899985E-01
          0                 5           1             4    7     1       0.5308290658E-05       5    8    1         0.3146571064E-03      0.7656974420E-03

    ------------------------------------------------
       NWT REQUIRED            5 OUTER ITERATIONS 
       AND A TOTAL OF          9 INNER ITERATIONS.
    ------------------------------------------------

 NO OUTPUT CONTROL FOR STRESS PERIOD   45   TIME STEP   11
 
 SOLVING FOR HEAD 
                                                   Max.-Head-Change                         Max.-Flux-Residual
  Residual-Control   Outer-Iter.   Inner-Iter.     Column Row Layer    Maximum-Head-Change  Column Row Layer    Maximum-Flux-Residual          L2-NORM 
          0                 1           2             5    8     1       0.1020038557E+00       5    8    1         0.5532797419E+01      0.1331644109E+02
          0                 2           2             4    7     1      -0.1589597579E+00       5    8    1        -0.8673167805E+01      0.2110902590E+02
          0                 3           2             4    7     1       0.1082445310E-01       5    8    1         0.6071160449E+00      0.1477616134E+01
          0                 4           2             4    7     1      -0.4307156726E-03       5    8    1        -0.2483110848E-01      0.6043466034E-01
          0                 5           1             4    7     1       0.5310910125E-05       5    8    1         0.3146866325E-03      0.7658934743E-03

    ------------------------------------------------
       NWT REQUIRED            5 OUTER ITERATIONS 
       AND A TOTAL OF          9 INNER ITERATIONS.
    ------------------------------------------------

 NO OUTPUT CONTROL FOR STRESS PERIOD   45   TIME STEP   12
 
 SOLVING FOR HEAD 
                                                   Max.-Head-Change                         Max.-Flux-Residual
  Residual-Control   Outer-Iter.   Inner-Iter.     Column Row Layer    Maximum-Head-Change  Column Row Layer    Maximum-Flux-Residual          L2-NORM 
          0                 1           2             5    8     1       0.1021792741E+00       5    8    1         0.5541448944E+01      0.1336220404E+02
          0                 2           2             4    7     1      -0.1590364136E+00       5    8    1        -0.8674032915E+01      0.2111444714E+02
          0                 3           2             4    7     1       0.1082967252E-01       5    8    1         0.6071766121E+00      0.1477995600E+01
          0                 4           2             4    7     1      -0.4309233611E-03       5    8    1        -0.2483358564E-01      0.6045018003E-01
          0                 5           1             4    7     1       0.5313471120E-05       5    8    1         0.3147180173E-03      0.7660900138E-03

    ------------------------------------------------
       NWT REQUIRED            5 OUTER ITERATIONS 
       AND A TOTAL OF          9 INNER ITERATIONS.
    ------------------------------------------------

 NO OUTPUT CONTROL FOR STRESS PERIOD   45   TIME STEP   13
 
 SOLVING FOR HEAD 
                                                   Max.-Head-Change                         Max.-Flux-Residual
  Residual-Control   Outer-Iter.   Inner-Iter.     Column Row Layer    Maximum-Head-Change  Column Row Layer    Maximum-Flux-Residual          L2-NORM 
          0                 1           2             5    8     1       0.1023625232E+00       5    8    1         0.5550558077E+01      0.1340788454E+02
          0                 2           2             4    7     1      -0.1591113628E+00       5    8    1        -0.8674943787E+01      0.2111981929E+02
          0                 3           2             4    7     1       0.1083477576E-01       5    8    1         0.6072403820E+00      0.1478371631E+01
          0                 4           2             4    7     1      -0.4311264260E-03       5    8    1        -0.2483619381E-01      0.6046555980E-01
          0                 5           1             4    7     1       0.5315974988E-05       5    8    1         0.3147510929E-03      0.7662851575E-03

    ------------------------------------------------
       NWT REQUIRED            5 OUTER ITERATIONS 
       AND A TOTAL OF          9 INNER ITERATIONS.
    ------------------------------------------------

 NO OUTPUT CONTROL FOR STRESS PERIOD   45   TIME STEP   14
 
 SOLVING FOR HEAD 
                                                   Max.-Head-Change                         Max.-Flux-Residual
  Residual-Control   Outer-Iter.   Inner-Iter.     Column Row Layer    Maximum-Head-Change  Column Row Layer    Maximum-Flux-Residual          L2-NORM 
          0                 1           2             5    8     1       0.1025525554E+00       5    8    1         0.5560065389E+01      0.1345342697E+02
          0                 2           2             4    7     1      -0.1591846810E+00       5    8    1        -0.8675895432E+01      0.2112514235E+02
          0                 3           2             4    7     1       0.1083976795E-01       5    8    1         0.6073070055E+00      0.1478744225E+01
          0                 4           2             4    7     1      -0.4313250727E-03       5    8    1        -0.2483891866E-01      0.6048079905E-01
          0                 5           1             4    7     1       0.5318424080E-05       5    8    1         0.3147856189E-03      0.7664823673E-03

    ------------------------------------------------
       NWT REQUIRED            5 OUTER ITERATIONS 
       AND A TOTAL OF          9 INNER ITERATIONS.
    ------------------------------------------------

 NO OUTPUT CONTROL FOR STRESS PERIOD   45   TIME STEP   15
 
 SOLVING FOR HEAD 
                                                   Max.-Head-Change                         Max.-Flux-Residual
  Residual-Control   Outer-Iter.   Inner-Iter.     Column Row Layer    Maximum-Head-Change  Column Row Layer    Maximum-Flux-Residual          L2-NORM 
          0                 1           2             5    8     1       0.1027486975E+00       5    8    1         0.5569932111E+01      0.1349879622E+02
          0                 2           2             4    7     1      -0.1592563627E+00       5    8    1        -0.8676882066E+01      0.2113041097E+02
          0                 3           2             4    7     1       0.1084464871E-01       5    8    1         0.6073760776E+00      0.1479113010E+01
          0                 4           2             4    7     1      -0.4315192847E-03       5    8    1        -0.2484174369E-01      0.6049588241E-01
          0                 5           1             4    7     1       0.5320818958E-05       5    8    1         0.3148214146E-03      0.7666732505E-03

    ------------------------------------------------
       NWT REQUIRED            5 OUTER ITERATIONS 
       AND A TOTAL OF          9 INNER ITERATIONS.
    ------------------------------------------------

 NO OUTPUT CONTROL FOR STRESS PERIOD   45   TIME STEP   16
 
 SOLVING FOR HEAD 
                                                   Max.-Head-Change                         Max.-Flux-Residual
  Residual-Control   Outer-Iter.   Inner-Iter.     Column Row Layer    Maximum-Head-Change  Column Row Layer    Maximum-Flux-Residual          L2-NORM 
          0                 1           2             5    8     1       0.1029502022E+00       5    8    1         0.5580115523E+01      0.1354396418E+02
          0                 2           2             4    7     1      -0.1593264936E+00       5    8    1        -0.8677900371E+01      0.2113562750E+02
          0                 3           2             4    7     1       0.1084942389E-01       5    8    1         0.6074473662E+00      0.1479478148E+01
          0                 4           2             4    7     1      -0.4317092957E-03       5    8    1        -0.2484465935E-01      0.6051081669E-01
          0                 5           1             4    7     1       0.5323161860E-05       5    8    1         0.3148583564E-03      0.7668585578E-03

    ------------------------------------------------
       NWT REQUIRED            5 OUTER ITERATIONS 
       AND A TOTAL OF          9 INNER ITERATIONS.
    ------------------------------------------------

 NO OUTPUT CONTROL FOR STRESS PERIOD   45   TIME STEP   17
 
 SOLVING FOR HEAD 
                                                   Max.-Head-Change                         Max.-Flux-Residual
  Residual-Control   Outer-Iter.   Inner-Iter.     Column Row Layer    Maximum-Head-Change  Column Row Layer    Maximum-Flux-Residual          L2-NORM 
          0                 1           2             5    8     1       0.1031563840E+00       5    8    1         0.5590576917E+01      0.1358889802E+02
          0                 2           2             4    7     1      -0.1593951261E+00       5    8    1        -0.8678946476E+01      0.2114079054E+02
          0                 3           2             4    7     1       0.1085409704E-01       5    8    1         0.6075206003E+00      0.1479839542E+01
          0                 4           2             4    7     1      -0.4318952474E-03       5    8    1        -0.2484765459E-01      0.6052559784E-01
          0                 5           1             4    7     1       0.5325454692E-05       5    8    1         0.3148963287E-03      0.7670459803E-03

    ------------------------------------------------
       NWT REQUIRED            5 OUTER ITERATIONS 
       AND A TOTAL OF          9 INNER ITERATIONS.
    ------------------------------------------------

 NO OUTPUT CONTROL FOR STRESS PERIOD   45   TIME STEP   18
 
 SOLVING FOR HEAD 
                                                   Max.-Head-Change                         Max.-Flux-Residual
  Residual-Control   Outer-Iter.   Inner-Iter.     Column Row Layer    Maximum-Head-Change  Column Row Layer    Maximum-Flux-Residual          L2-NORM 
          0                 1           2             5    8     1       0.1033666247E+00       5    8    1         0.5601280743E+01      0.1363358354E+02
          0                 2           2             4    7     1      -0.1594623107E+00       5    8    1        -0.8680016825E+01      0.2114590091E+02
          0                 3           2             4    7     1       0.1085867161E-01       5    8    1         0.6075955310E+00      0.1480197250E+01
          0                 4           2             4    7     1      -0.4320772755E-03       5    8    1        -0.2485071924E-01      0.6054022818E-01
          0                 5           1             4    7     1       0.5327699133E-05       5    8    1         0.3149351664E-03      0.7672320093E-03

    ------------------------------------------------
       NWT REQUIRED            5 OUTER ITERATIONS 
       AND A TOTAL OF          9 INNER ITERATIONS.
    ------------------------------------------------

 NO OUTPUT CONTROL FOR STRESS PERIOD   45   TIME STEP   19
 
 SOLVING FOR HEAD 
                                                   Max.-Head-Change                         Max.-Flux-Residual
  Residual-Control   Outer-Iter.   Inner-Iter.     Column Row Layer    Maximum-Head-Change  Column Row Layer    Maximum-Flux-Residual          L2-NORM 
          0                 1           2             5    8     1       0.1035803625E+00       5    8    1         0.5612194965E+01      0.1367797839E+02
          0                 2           2             4    7     1      -0.1595281007E+00       5    8    1        -0.8681109169E+01      0.2115095916E+02
          0                 3           2             4    7     1       0.1086315123E-01       5    8    1         0.6076720010E+00      0.1480551309E+01
          0                 4           2             4    7     1      -0.4322555261E-03       5    8    1        -0.2485384685E-01      0.6055470930E-01
          0                 5           1             4    7     1       0.5329896752E-05       5    8    1         0.3149748034E-03      0.7674147402E-03

    ------------------------------------------------
       NWT REQUIRED            5 OUTER ITERATIONS 
       AND A TOTAL OF          9 INNER ITERATIONS.
    ------------------------------------------------

 NO OUTPUT CONTROL FOR STRESS PERIOD   45   TIME STEP   20
 
 SOLVING FOR HEAD 
                                                   Max.-Head-Change                         Max.-Flux-Residual
  Residual-Control   Outer-Iter.   Inner-Iter.     Column Row Layer    Maximum-Head-Change  Column Row Layer    Maximum-Flux-Residual          L2-NORM 
          0                 1           2             5    8     1       0.1037972234E+00       5    8    1         0.5623298230E+01      0.1372207171E+02
          0                 2           2             4    7     1      -0.1595924948E+00       5    8    1        -0.8682219465E+01      0.2115596059E+02
          0                 3           2             4    7     1       0.1086753579E-01       5    8    1         0.6077497272E+00      0.1480901393E+01
          0                 4           2             4    7     1      -0.4324299940E-03       5    8    1        -0.2485702584E-01      0.6056902783E-01
          0                 5           1             4    7     1       0.5332048557E-05       5    8    1         0.3150150917E-03      0.7675965658E-03

    ------------------------------------------------
       NWT REQUIRED            5 OUTER ITERATIONS 
       AND A TOTAL OF          9 INNER ITERATIONS.
    ------------------------------------------------

 NO OUTPUT CONTROL FOR STRESS PERIOD   45   TIME STEP   21
 
 SOLVING FOR HEAD 
                                                   Max.-Head-Change                         Max.-Flux-Residual
  Residual-Control   Outer-Iter.   Inner-Iter.     Column Row Layer    Maximum-Head-Change  Column Row Layer    Maximum-Flux-Residual          L2-NORM 
          0                 1           2             5    8     1       0.1040164494E+00       5    8    1         0.5634547833E+01      0.1376584733E+02
          0                 2           2             4    7     1      -0.1596555825E+00       5    8    1        -0.8683344397E+01      0.2116090797E+02
          0                 3           2             4    7     1       0.1087183142E-01       5    8    1         0.6078284775E+00      0.1481247692E+01
          0                 4           2             4    7     1      -0.4326009229E-03       5    8    1        -0.2486024669E-01      0.6058319151E-01
          0                 5           1             4    7     1       0.5334156340E-05       5    8    1         0.3150559251E-03      0.7678133398E-03

    ------------------------------------------------
       NWT REQUIRED            5 OUTER ITERATIONS 
       AND A TOTAL OF          9 INNER ITERATIONS.
    ------------------------------------------------

 NO OUTPUT CONTROL FOR STRESS PERIOD   45   TIME STEP   22
 
 SOLVING FOR HEAD 
                                                   Max.-Head-Change                         Max.-Flux-Residual
  Residual-Control   Outer-Iter.   Inner-Iter.     Column Row Layer    Maximum-Head-Change  Column Row Layer    Maximum-Flux-Residual          L2-NORM 
          0                 1           2             5    8     1       0.1042379066E+00       5    8    1         0.5645935519E+01      0.1380928321E+02
          0                 2           2             4    7     1      -0.1597173807E+00       5    8    1        -0.8684483138E+01      0.2116580046E+02
          0                 3           2             4    7     1       0.1087603925E-01       5    8    1         0.6079081942E+00      0.1481590149E+01
          0                 4           2             4    7     1      -0.4327683580E-03       5    8    1        -0.2486350709E-01      0.6059719816E-01
          0                 5           1             4    7     1       0.5336220101E-05       5    8    1         0.3150972302E-03      0.7679532286E-03

    ------------------------------------------------
       NWT REQUIRED            5 OUTER ITERATIONS 
       AND A TOTAL OF          9 INNER ITERATIONS.
    ------------------------------------------------

 NO OUTPUT CONTROL FOR STRESS PERIOD   45   TIME STEP   23
 
 SOLVING FOR HEAD 
                                                   Max.-Head-Change                         Max.-Flux-Residual
  Residual-Control   Outer-Iter.   Inner-Iter.     Column Row Layer    Maximum-Head-Change  Column Row Layer    Maximum-Flux-Residual          L2-NORM 
          0                 1           2             5    8     1       0.1044612075E+00       5    8    1         0.5657438837E+01      0.1385237845E+02
          0                 2           2             4    7     1      -0.1597779454E+00       5    8    1        -0.8685633444E+01      0.2117063968E+02
          0                 3           2             4    7     1       0.1088016308E-01       5    8    1         0.6079887200E+00      0.1481928877E+01
          0                 4           2             4    7     1      -0.4329324510E-03       5    8    1        -0.2486680058E-01      0.6061105217E-01
          0                 5           1             4    7     1       0.5338243313E-05       5    8    1         0.3151389528E-03      0.7681295744E-03

    ------------------------------------------------
       NWT REQUIRED            5 OUTER ITERATIONS 
       AND A TOTAL OF          9 INNER ITERATIONS.
    ------------------------------------------------

 NO OUTPUT CONTROL FOR STRESS PERIOD   45   TIME STEP   24
 
 SOLVING FOR HEAD 
                                                   Max.-Head-Change                         Max.-Flux-Residual
  Residual-Control   Outer-Iter.   Inner-Iter.     Column Row Layer    Maximum-Head-Change  Column Row Layer    Maximum-Flux-Residual          L2-NORM 
          0                 1           2             5    8     1       0.1046857114E+00       5    8    1         0.5669022206E+01      0.1389510118E+02
          0                 2           2             4    7     1      -0.1598372907E+00       5    8    1        -0.8686791756E+01      0.2117542329E+02
          0                 3           2             4    7     1       0.1088420390E-01       5    8    1         0.6080698059E+00      0.1482263713E+01
          0                 4           2             4    7     1      -0.4330932412E-03       5    8    1        -0.2487011697E-01      0.6062474709E-01
          0                 5           1             4    7     1       0.5340226760E-05       5    8    1         0.3151810020E-03      0.7683023469E-03

    ------------------------------------------------
       NWT REQUIRED            5 OUTER ITERATIONS 
       AND A TOTAL OF          9 INNER ITERATIONS.
    ------------------------------------------------

 NO OUTPUT CONTROL FOR STRESS PERIOD   45   TIME STEP   25
 
 SOLVING FOR HEAD 
                                                   Max.-Head-Change                         Max.-Flux-Residual
  Residual-Control   Outer-Iter.   Inner-Iter.     Column Row Layer    Maximum-Head-Change  Column Row Layer    Maximum-Flux-Residual          L2-NORM 
          0                 1           2             5    8     1       0.1049113873E+00       5    8    1         0.5680683399E+01      0.1393745658E+02
          0                 2           2             4    7     1      -0.1598955000E+00       5    8    1        -0.8687958806E+01      0.2118015548E+02
          0                 3           2             4    7     1       0.1088816736E-01       5    8    1         0.6081515032E+00      0.1482594950E+01
          0                 4           2             4    7     1      -0.4332509528E-03       5    8    1        -0.2487345838E-01      0.6063829483E-01
          0                 5           1             4    7     1       0.5342171338E-05       5    8    1         0.3152233330E-03      0.7684739848E-03

    ------------------------------------------------
       NWT REQUIRED            5 OUTER ITERATIONS 
       AND A TOTAL OF          9 INNER ITERATIONS.
    ------------------------------------------------

 NO OUTPUT CONTROL FOR STRESS PERIOD   45   TIME STEP   26
 
 SOLVING FOR HEAD 
                                                   Max.-Head-Change                         Max.-Flux-Residual
  Residual-Control   Outer-Iter.   Inner-Iter.     Column Row Layer    Maximum-Head-Change  Column Row Layer    Maximum-Flux-Residual          L2-NORM 
          0                 1           2             5    8     1       0.1051378032E+00       5    8    1         0.5692397602E+01      0.1397942292E+02
          0                 2           2             4    7     1      -0.1599525616E+00       5    8    1        -0.8689130204E+01      0.2118483063E+02
          0                 3           2             4    7     1       0.1089205268E-01       5    8    1         0.6082335046E+00      0.1482922194E+01
          0                 4           2             4    7     1      -0.4334055550E-03       5    8    1        -0.2487681223E-01      0.6065167919E-01
          0                 5           1             4    7     1       0.5344077606E-05       5    8    1         0.3152658462E-03      0.7686438218E-03

    ------------------------------------------------
       NWT REQUIRED            5 OUTER ITERATIONS 
       AND A TOTAL OF          9 INNER ITERATIONS.
    ------------------------------------------------

 NO OUTPUT CONTROL FOR STRESS PERIOD   45   TIME STEP   27
 
 SOLVING FOR HEAD 
                                                   Max.-Head-Change                         Max.-Flux-Residual
  Residual-Control   Outer-Iter.   Inner-Iter.     Column Row Layer    Maximum-Head-Change  Column Row Layer    Maximum-Flux-Residual          L2-NORM 
          0                 1           2             5    8     1       0.1053648372E+00       5    8    1         0.5704157843E+01      0.1402100572E+02
          0                 2           2             4    7     1      -0.1600085168E+00       5    8    1        -0.8690306207E+01      0.2118945232E+02
          0                 3           2             4    7     1       0.1089586267E-01       5    8    1         0.6083158280E+00      0.1483245697E+01
          0                 4           2             4    7     1      -0.4335571596E-03       5    8    1        -0.2488017924E-01      0.6066491054E-01
          0                 5           1             4    7     1       0.5345946798E-05       5    8    1         0.3153085224E-03      0.7689816547E-03

    ------------------------------------------------
       NWT REQUIRED            5 OUTER ITERATIONS 
       AND A TOTAL OF          9 INNER ITERATIONS.
    ------------------------------------------------

 NO OUTPUT CONTROL FOR STRESS PERIOD   45   TIME STEP   28
 
 SOLVING FOR HEAD 
                                                   Max.-Head-Change                         Max.-Flux-Residual
  Residual-Control   Outer-Iter.   Inner-Iter.     Column Row Layer    Maximum-Head-Change  Column Row Layer    Maximum-Flux-Residual          L2-NORM 
          0                 1           2             5    8     1       0.1055921040E+00       5    8    1         0.5715942353E+01      0.1406219465E+02
          0                 2           2             4    7     1      -0.1600634137E+00       5    8    1        -0.8691484638E+01      0.2119402058E+02
          0                 3           2             4    7     1       0.1089960060E-01       5    8    1         0.6083983212E+00      0.1483565459E+01
          0                 4           2             4    7     1      -0.4337058970E-03       5    8    1        -0.2488355321E-01      0.6067798898E-01
          0                 5           1             4    7     1       0.5347780593E-05       5    8    1         0.3153512628E-03      0.7689924489E-03

    ------------------------------------------------
       NWT REQUIRED            5 OUTER ITERATIONS 
       AND A TOTAL OF          9 INNER ITERATIONS.
    ------------------------------------------------

 NO OUTPUT CONTROL FOR STRESS PERIOD   45   TIME STEP   29
 
 SOLVING FOR HEAD 
                                                   Max.-Head-Change                         Max.-Flux-Residual
  Residual-Control   Outer-Iter.   Inner-Iter.     Column Row Layer    Maximum-Head-Change  Column Row Layer    Maximum-Flux-Residual          L2-NORM 
          0                 1           2             5    8     1       0.1058193909E+00       5    8    1         0.5727738893E+01      0.1410297586E+02
          0                 2           2             4    7     1      -0.1601172853E+00       5    8    1        -0.8692664274E+01      0.2119853491E+02
          0                 3           2             4    7     1       0.1090326873E-01       5    8    1         0.6084808985E+00      0.1483881447E+01
          0                 4           2             4    7     1      -0.4338518569E-03       5    8    1        -0.2488693063E-01      0.6069091282E-01
          0                 5           1             4    7     1       0.5349580447E-05       5    8    1         0.3153940843E-03      0.7691418733E-03

    ------------------------------------------------
       NWT REQUIRED            5 OUTER ITERATIONS 
       AND A TOTAL OF          9 INNER ITERATIONS.
    ------------------------------------------------

 NO OUTPUT CONTROL FOR STRESS PERIOD   45   TIME STEP   30



 STREAM LISTING     PERIOD     45   STEP       30

 LAYER ROW COL. STREAM  RCH.  FLOW INTO     FLOW TO   FLOW OUT OF   OVRLND.     DIRECT     STREAM       STREAM     STREAM     STREAM   STREAMBED  STREAMBED
                SEG.NO.  NO.  STRM. RCH.    AQUIFER    STRM. RCH.    RUNOFF     PRECIP       ET          HEAD       DEPTH      WIDTH   CONDCTNC.   GRADIENT

   1    1    1     1     1    1.9000E+01  2.1427E-01   1.8786E+01  0.000E+00  0.000E+00  0.000E+00  1.09413E+03  1.082E+00  1.166E+01  5.249E-02  1.361E+00
   1    2    2     1     2    1.8786E+01  3.3054E-01   1.8455E+01  0.000E+00  0.000E+00  0.000E+00  1.08914E+03  1.077E+00  1.158E+01  8.107E-02  1.359E+00
   1    3    3     1     3    1.8455E+01  2.8064E-01   1.8175E+01  0.000E+00  0.000E+00  0.000E+00  1.08349E+03  1.072E+00  1.149E+01  6.892E-02  1.357E+00
   1    3    4     1     4    1.8175E+01  2.5740E-01   1.7917E+01  0.000E+00  0.000E+00  0.000E+00  1.07848E+03  1.068E+00  1.140E+01  6.328E-02  1.356E+00
   1    4    5     2     1    1.5917E+01  3.0542E-01   1.5612E+01  0.000E+00  0.000E+00  0.000E+00  1.07285E+03  9.157E-01  1.200E+01  7.800E-02  1.305E+00
   1    5    6     2     2    1.5612E+01  2.3438E-01   1.5377E+01  0.000E+00  0.000E+00  0.000E+00  1.06742E+03  9.063E-01  1.200E+01  6.000E-02  1.302E+00
   1    6    6     2     3    1.5377E+01  2.3388E-01   1.5143E+01  0.000E+00  0.000E+00  0.000E+00  1.06269E+03  8.980E-01  1.200E+01  6.000E-02  1.299E+00
   1    7    6     2     4    1.5143E+01  2.3338E-01   1.4910E+01  0.000E+00  0.000E+00  0.000E+00  1.05797E+03  8.897E-01  1.200E+01  6.000E-02  1.297E+00
   1    8    6     2     5    1.4910E+01  2.3289E-01   1.4677E+01  0.000E+00  0.000E+00  0.000E+00  1.05324E+03  8.814E-01  1.200E+01  6.000E-02  1.294E+00
   1    3    5     3     1    2.0000E+00  2.8252E-01   1.7175E+00  0.000E+00  0.000E+00  0.000E+00  1.07555E+03  1.909E+00  9.636E+00  7.227E-02  1.955E+00
   1    3    6     3     2    1.7175E+00  2.4905E-01   1.4684E+00  0.000E+00  0.000E+00  0.000E+00  1.07264E+03  1.727E+00  8.909E+00  6.682E-02  1.864E+00
   1    3    7     3     3    1.4684E+00  1.9718E-01   1.2712E+00  0.000E+00  0.000E+00  0.000E+00  1.06987E+03  1.555E+00  8.218E+00  5.547E-02  1.777E+00
   1    4    8     3     4    1.2712E+00  2.2567E-01   1.0456E+00  0.000E+00  0.000E+00  0.000E+00  1.06682E+03  1.364E+00  7.455E+00  6.709E-02  1.682E+00
   1    5    8     3     5    1.0456E+00  1.5790E-01   8.8768E-01  0.000E+00  0.000E+00  0.000E+00  1.06362E+03  1.164E+00  6.655E+00  4.991E-02  1.582E+00
   1    6    8     3     6    8.8768E-01  5.5980E-02   8.3170E-01  0.000E+00  0.000E+00  0.000E+00  1.06158E+03  1.036E+00  6.145E+00  1.844E-02  1.518E+00
   1    5   10     4     1    1.0000E+01  9.0919E-02   9.9091E+00  0.000E+00  0.000E+00  0.000E+00  1.07836E+03  6.368E-01  1.000E+01  2.500E-02  1.212E+00
   1    5    9     4     2    9.9091E+00  1.8158E-01   9.7275E+00  0.000E+00  0.000E+00  0.000E+00  1.07154E+03  6.315E-01  1.000E+01  5.000E-02  1.211E+00
   1    6    8     4     3    9.7275E+00  1.2689E-01   9.6006E+00  0.000E+00  0.000E+00  0.000E+00  1.06381E+03  6.256E-01  1.000E+01  3.500E-02  1.209E+00
   1    6    8     5     1    1.0432E+01  2.2686E-01   1.0205E+01  0.000E+00  0.000E+00  0.000E+00  1.05868E+03  6.790E-01  1.542E+01  6.166E-02  1.226E+00
   1    7    7     5     2    1.0205E+01  2.7894E-01   9.9265E+00  0.000E+00  0.000E+00  0.000E+00  1.05417E+03  6.732E-01  1.519E+01  7.594E-02  1.224E+00
   1    8    7     5     3    9.9265E+00  1.9221E-01   9.7343E+00  0.000E+00  0.000E+00  0.000E+00  1.04992E+03  6.676E-01  1.497E+01  5.241E-02  1.223E+00
   1    8    6     5     4    9.7343E+00  1.3577E-01   9.5985E+00  0.000E+00  0.000E+00  0.000E+00  1.04691E+03  6.637E-01  1.482E+01  3.706E-02  1.221E+00
   1    9    6     6     1    2.4276E+01  2.5176E-01   2.4024E+01  0.000E+00  0.000E+00  0.000E+00  1.04392E+03  1.196E+00  1.200E+01  6.000E-02  1.399E+00
   1   10    7     6     2    2.4024E+01  2.5131E-01   2.3773E+01  0.000E+00  0.000E+00  0.000E+00  1.03937E+03  1.188E+00  1.200E+01  6.000E-02  1.396E+00
   1   11    7     6     3    2.3773E+01  2.5086E-01   2.3522E+01  0.000E+00  0.000E+00  0.000E+00  1.03482E+03  1.181E+00  1.200E+01  6.000E-02  1.394E+00
   1   12    7     6     4    2.3522E+01  2.5041E-01   2.3271E+01  0.000E+00  0.000E+00  0.000E+00  1.03026E+03  1.173E+00  1.200E+01  6.000E-02  1.391E+00
   1   13    7     6     5    2.3271E+01  1.1694E-02   2.3260E+01  0.000E+00  0.000E+00  0.000E+00  1.02708E+03  1.169E+00  1.200E+01  2.400E-02  1.624E-01
   1   14    9     7     1    1.5000E+02  1.3758E+00   1.4862E+02  0.000E+00  0.000E+00  0.000E+00  1.03987E+03  2.288E+00  5.529E+01  5.593E-01  8.199E-01
   1   13    8     7     2    1.4862E+02  1.9837E+00   1.4664E+02  0.000E+00  0.000E+00  0.000E+00  1.03478E+03  2.279E+00  5.525E+01  6.147E-01  1.076E+00
   1   13    7     7     3    1.4664E+02  1.7291E+00   1.4491E+02  0.000E+00  0.000E+00  0.000E+00  1.02969E+03  2.269E+00  5.521E+01  5.584E-01  1.032E+00
   1   13    6     8     1    1.6817E+02  1.1590E+00   1.6701E+02  0.000E+00  0.000E+00  0.000E+00  1.02481E+03  2.936E+00  4.258E+01  4.339E-01  8.904E-01
   1   13    5     8     2    1.6701E+02  3.9154E-01   1.6662E+02  0.000E+00  0.000E+00  0.000E+00  1.01856E+03  2.931E+00  4.250E+01  4.331E-01  3.013E-01
   1   13    4     8     3    1.6662E+02 -1.7202E+00   1.6834E+02  0.000E+00  0.000E+00  0.000E+00  1.01231E+03  2.936E+00  4.257E+01  4.338E+00 -1.322E-01
   1   13    3     8     4    1.6834E+02 -3.2940E+00   1.7163E+02  0.000E+00  0.000E+00  0.000E+00  1.00608E+03  2.952E+00  4.281E+01  4.362E+00 -2.517E-01
   1   13    2     8     5    1.7163E+02 -2.4860E+00   1.7412E+02  0.000E+00  0.000E+00  0.000E+00  9.99846E+02  2.971E+00  4.308E+01  4.390E+00 -1.888E-01
   1   13    1     8     6    1.7412E+02 -1.9580E+00   1.7608E+02  0.000E+00  0.000E+00  0.000E+00  9.94860E+02  2.985E+00  4.328E+01  2.646E+00 -2.466E-01





UNSATURATED ZONE PACKAGE VOLUMETRIC BUDGET FOR  TIME STEP    30 STRESS PERIOD   45
  ------------------------------------------------------------------------------



     CUMULATIVE VOLUMES      L**3       RATES FOR THIS TIME STEP      L**3/T
     ------------------                 ------------------------

           IN:                                      IN:
           ---                                      ---
        INFILTRATION =  1684232069.2700          INFILTRATION =          49.5669

          OUT:                                     OUT:
          ----                                     ----
              UZF ET =  1683368759.1774                UZF ET =          49.5675
        UZF RECHARGE =       73224.0000          UZF RECHARGE =       0.0000E+00

            IN - OUT =      790086.0926              IN - OUT =      -6.0654E-04

          STORAGE:                                 STORAGE:
          --------                                 --------
      STORAGE CHANGE =      790071.1439        STORAGE CHANGE =      -6.0538E-04

 PERCENT DISCREPANCY IS DIFFERENCE BETWEEN IN-OUT MINUS CHANGE IN STORAGE
 DIVIDED BY THE AVERAGE OF IN AND OUT TIMES 100

 PERCENT DISCREPANCY =           0.00     PERCENT DISCREPANCY =          -0.00






1
  VOLUMETRIC BUDGET FOR AGRICULTURAL FIELDS AT  END OF TIME STEP   30, STRESS PERIOD  45
  ------------------------------------------------------------------------------

     CUMULATIVE VOLUMES      L**3       RATES FOR THIS TIME STEP      L**3/T
     ------------------                 ------------------------

           IN:                                      IN:
           ---                                      ---
               AG WELLS  =  1586081792.0000                 AG WELLS  =          48.7194
      DIVERSION SEGMENTS =           0.0000        DIVERSION SEGMENTS =           0.0000
       IRRIGATION PONDS  =           0.0000         IRRIGATION PONDS  =           0.0000
           GW IRRIGATION =           0.0000             GW IRRIGATION =           0.0000
           SW IRRIGATION =           0.0000             SW IRRIGATION =           0.0000
        SYSTEM LOSSES GW =           0.0000          SYSTEM LOSSES GW =           0.0000
        SYSTEM LOSSES SW =           0.0000          SYSTEM LOSSES SW =           0.0000

                TOTAL IN =  1586081792.0000                  TOTAL IN =          48.7194

          OUT:                                     OUT:
          ----                                     ----
               AG WELLS  =           0.0000                 AG WELLS  =           0.0000
      DIVERSION SEGMENTS =           0.0000        DIVERSION SEGMENTS =           0.0000
       IRRIGATION PONDS  =           0.0000         IRRIGATION PONDS  =           0.0000
           GW IRRIGATION =  1586081792.0000             GW IRRIGATION =          48.7194
           SW IRRIGATION =           0.0000             SW IRRIGATION =           0.0000
        SYSTEM LOSSES GW =           0.0000          SYSTEM LOSSES GW =           0.0000
        SYSTEM LOSSES SW =           0.0000          SYSTEM LOSSES SW =           0.0000

               TOTAL OUT =  1586081792.0000                 TOTAL OUT =          48.7194

                IN - OUT =           0.0000                  IN - OUT =           0.0000

     PERCENT DISCREPANCY =           0.00         PERCENT DISCREPANCY =           0.00



1
  VOLUMETRIC BUDGET FOR ENTIRE MODEL AT END OF TIME STEP   30, STRESS PERIOD  45
  ------------------------------------------------------------------------------

     CUMULATIVE VOLUMES      L**3       RATES FOR THIS TIME STEP      L**3/T
     ------------------                 ------------------------

           IN:                                      IN:
           ---                                      ---
             STORAGE     =  2048276736.0000               STORAGE     =          45.8143
       CONSTANT HEAD     =           0.0000         CONSTANT HEAD     =           0.0000
     HEAD DEP BOUNDS     =    33146196.0000       HEAD DEP BOUNDS     =           0.2885
      STREAM LEAKAGE     =  1419169664.0000        STREAM LEAKAGE     =          12.3794
        UZF RECHARGE     =       73223.9531          UZF RECHARGE     =           0.0000
               GW ET     =           0.0000                 GW ET     =           0.0000
     SURFACE LEAKAGE     =           0.0000       SURFACE LEAKAGE     =           0.0000
           AG WELLS      =           0.0000             AG WELLS      =           0.0000

                TOTAL IN =  3500665856.0000                  TOTAL IN =          58.4822

          OUT:                                     OUT:
          ----                                     ----
             STORAGE     =   691030336.0000               STORAGE     =       1.5780E-02
       CONSTANT HEAD     =           0.0000         CONSTANT HEAD     =           0.0000
     HEAD DEP BOUNDS     =    33791372.0000       HEAD DEP BOUNDS     =           0.2888
      STREAM LEAKAGE     =  1172162176.0000        STREAM LEAKAGE     =           9.4582
        UZF RECHARGE     =           0.0000          UZF RECHARGE     =           0.0000
               GW ET     =    17603406.0000                 GW ET     =           0.0000
     SURFACE LEAKAGE     =           0.0000       SURFACE LEAKAGE     =           0.0000
           AG WELLS      =  1586081792.0000             AG WELLS      =          48.7194

               TOTAL OUT =  3500668928.0000                 TOTAL OUT =          58.4822

                IN - OUT =       -3072.0000                  IN - OUT =       3.4332E-05

     PERCENT DISCREPANCY =          -0.00         PERCENT DISCREPANCY =           0.00






         TIME SUMMARY AT END OF TIME STEP   30 IN STRESS PERIOD   45
                    SECONDS     MINUTES      HOURS       DAYS        YEARS
                    -----------------------------------------------------------
   TIME STEP LENGTH  87667.      1461.1      24.352      1.0147     2.77799E-03
 STRESS PERIOD TIME 2.63000E+06  43833.      730.56      30.440     8.33397E-02
         TOTAL TIME 1.15805E+08 1.93009E+06  32168.      1340.3      3.6696    
1
1
                            STRESS PERIOD NO.   46, LENGTH =   2630000.    
                            -----------------------------------------------

                              NUMBER OF TIME STEPS =    30

                               MULTIPLIER FOR DELT =     1.000

                            INITIAL TIME STEP SIZE =   87666.66    

 REUSING NON-PARAMETER GHB CELLS FROM LAST STRESS PERIOD

      2 GHB CELLS

 REUSING STREAM SEGMENT DATA FROM LAST STRESS PERIOD



            AREAL INFILTRATION RATE
 READING ON UNIT   19 WITH FORMAT: (FREE)              

            1           2           3           4           5           6           7           8           9          10
 ........................................................................................................................
   1   1.0000E-10  2.0000E-10   0.000       0.000       0.000       0.000       0.000       0.000       0.000       0.000    
   2   2.0000E-10  1.0000E-10  2.0000E-10   0.000       0.000      8.0000E-10  8.0000E-10  5.0000E-10   0.000       0.000    
   3    0.000      5.0000E-10  1.0000E-10  1.0000E-10  8.0000E-10  8.0000E-10  5.0000E-10  5.0000E-10   0.000       0.000    
   4   8.0000E-10  5.0000E-10  1.0000E-10  1.0000E-10  1.0000E-10  1.0000E-10  1.0000E-10  1.0000E-10  2.0000E-10   0.000    
   5   8.0000E-10  5.0000E-10  1.0000E-10  1.0000E-10  1.0000E-10  1.0000E-10  1.0000E-10  1.0000E-10  1.0000E-10  1.0000E-10
   6   8.0000E-10  5.0000E-10  5.0000E-10  2.0000E-10  2.0000E-10  1.0000E-10  1.0000E-10  1.0000E-10  1.0000E-10  5.0000E-10
   7   8.0000E-10  5.0000E-10  5.0000E-10  2.0000E-10  2.0000E-10  1.0000E-10  1.0000E-10  2.0000E-10  2.0000E-10   0.000    
   8    0.000      5.0000E-10  5.0000E-10  2.0000E-10  2.0000E-10  1.0000E-10  1.0000E-10  2.0000E-10  5.0000E-10   0.000    
   9    0.000      5.0000E-10  5.0000E-10  2.0000E-10  2.0000E-10  1.0000E-10  1.0000E-10  2.0000E-10  5.0000E-10   0.000    
  10    0.000      5.0000E-10  5.0000E-10  2.0000E-10  2.0000E-10  1.0000E-10  1.0000E-10  2.0000E-10  5.0000E-10  8.0000E-10
  11    0.000      1.0000E-10  1.0000E-10  1.0000E-10  1.0000E-10  1.0000E-10  1.0000E-10  2.0000E-10  5.0000E-10   0.000    
  12   1.0000E-10  1.0000E-10  1.0000E-10  1.0000E-10  1.0000E-10  1.0000E-10  1.0000E-10  1.0000E-10  2.0000E-10   0.000    
  13   1.0000E-10  1.0000E-10  2.0000E-10  2.0000E-10  2.0000E-10  2.0000E-10  2.0000E-10  1.0000E-10  1.0000E-10   0.000    
  14    0.000      2.0000E-10  5.0000E-10  5.0000E-10  5.0000E-10  5.0000E-10  5.0000E-10  2.0000E-10  1.0000E-10   0.000    
  15    0.000       0.000      8.0000E-10  8.0000E-10  8.0000E-10  8.0000E-10   0.000       0.000       0.000       0.000    

                  ET RATE =  7.500000E-08

 USING ET EXTINCTION DEPTH FROM PREVIOUS STRESS PERIOD. CURRENT PERIOD IS:      46

 USING EXTINCTION WATER CONTENT FROM PREVIOUS STRESS PERIOD. CURRENT PERIOD IS:      46

 USING AIR ENTRY PRESSURE FROM PREVIOUS STRESS PERIOD. CURRENT PERIOD IS:      46

 USING ROOT PRESSURE HEAD FROM PREVIOUS STRESS PERIOD. CURRENT PERIOD IS:      46

 USING ROOT ACTIVITY FROM PREVIOUS STRESS PERIOD. CURRENT PERIOD IS:      46

 PROCESSING AG STRESS PERIOD DATA

 READING AG STRESS PERIOD DATA

 READING IRRIGATION WELL

 NO IRRPOND OR REUSING IRRPOND DATA FROM LAST STRESS PERIOD

 END PROCESSING AG STRESS PERIOD DATA OPTIONS
 
 SOLVING FOR HEAD 
                                                   Max.-Head-Change                         Max.-Flux-Residual
  Residual-Control   Outer-Iter.   Inner-Iter.     Column Row Layer    Maximum-Head-Change  Column Row Layer    Maximum-Flux-Residual          L2-NORM 
          0                 1           2             5    8     1       0.7103385204E-01       5    8    1         0.3864544118E+01      0.1005583016E+02
          0                 2           2             5    8     1      -0.6909551950E-02       5    8    1        -0.3864471234E+00      0.1005560854E+01
          0                 3           2             5    8     1       0.4705159191E-03       5    8    1         0.2705138041E-01      0.7038949783E-01
          0                 4           1             5    8     1      -0.1872226416E-04       5    8    1        -0.1106402677E-02      0.2878933791E-02

    ------------------------------------------------
       NWT REQUIRED            4 OUTER ITERATIONS 
       AND A TOTAL OF          7 INNER ITERATIONS.
    ------------------------------------------------

 NO OUTPUT CONTROL FOR STRESS PERIOD   46   TIME STEP    1
 
 SOLVING FOR HEAD 
                                                   Max.-Head-Change                         Max.-Flux-Residual
  Residual-Control   Outer-Iter.   Inner-Iter.     Column Row Layer    Maximum-Head-Change  Column Row Layer    Maximum-Flux-Residual          L2-NORM 
          0                 1           2             5    8     1       0.1029173083E+00       5    8    1         0.5566255900E+01      0.1383915544E+02
          0                 2           2             5    7     1      -0.4404551465E-01       5    8    1        -0.2426486570E+01      0.5885729557E+01
          0                 3           2             5    7     1       0.2999328580E-02       5    8    1         0.1698538258E+00      0.4120003524E+00
          0                 4           2             5    7     1      -0.1193461159E-03       5    8    1        -0.6947032044E-02      0.1685084053E-01
          0                 5           1             5    7     1       0.1471590761E-05       5    8    1         0.8804029335E-04      0.2135524837E-03

    ------------------------------------------------
       NWT REQUIRED            5 OUTER ITERATIONS 
       AND A TOTAL OF          9 INNER ITERATIONS.
    ------------------------------------------------

 NO OUTPUT CONTROL FOR STRESS PERIOD   46   TIME STEP    2
 
 SOLVING FOR HEAD 
                                                   Max.-Head-Change                         Max.-Flux-Residual
  Residual-Control   Outer-Iter.   Inner-Iter.     Column Row Layer    Maximum-Head-Change  Column Row Layer    Maximum-Flux-Residual          L2-NORM 
          0                 1           2             5    8     1       0.9997578882E-01       5    8    1         0.5403488959E+01      0.1355064045E+02
          0                 2           2             5    7     1      -0.4391457859E-01       5    8    1        -0.2410211114E+01      0.5861037493E+01
          0                 3           2             5    7     1       0.2990411886E-02       5    8    1         0.1687145449E+00      0.4102718640E+00
          0                 4           2             5    7     1      -0.1189913144E-03       5    8    1        -0.6900435362E-02      0.1678014561E-01
          0                 5           1             5    7     1       0.1467216022E-05       5    8    1         0.8744978823E-04      0.2126571060E-03

    ------------------------------------------------
       NWT REQUIRED            5 OUTER ITERATIONS 
       AND A TOTAL OF          9 INNER ITERATIONS.
    ------------------------------------------------

 NO OUTPUT CONTROL FOR STRESS PERIOD   46   TIME STEP    3
 
 SOLVING FOR HEAD 
                                                   Max.-Head-Change                         Max.-Flux-Residual
  Residual-Control   Outer-Iter.   Inner-Iter.     Column Row Layer    Maximum-Head-Change  Column Row Layer    Maximum-Flux-Residual          L2-NORM 
          0                 1           2             5    8     1       0.9721131420E-01       5    8    1         0.5250631483E+01      0.1327691476E+02
          0                 2           2             5    7     1      -0.4378545092E-01       5    8    1        -0.2394926579E+01      0.5837433962E+01
          0                 3           2             5    7     1       0.2981618382E-02       5    8    1         0.1676446280E+00      0.4086195760E+00
          0                 4           2             5    7     1      -0.1186414146E-03       5    8    1        -0.6856675701E-02      0.1671256713E-01
          0                 5           1             5    7     1       0.1462901434E-05       5    8    1         0.8689522679E-04      0.2118081041E-03

    ------------------------------------------------
       NWT REQUIRED            5 OUTER ITERATIONS 
       AND A TOTAL OF          9 INNER ITERATIONS.
    ------------------------------------------------

 NO OUTPUT CONTROL FOR STRESS PERIOD   46   TIME STEP    4
 
 SOLVING FOR HEAD 
                                                   Max.-Head-Change                         Max.-Flux-Residual
  Residual-Control   Outer-Iter.   Inner-Iter.     Column Row Layer    Maximum-Head-Change  Column Row Layer    Maximum-Flux-Residual          L2-NORM 
          0                 1           2             5    8     1       0.9461122404E-01       5    8    1         0.5106969027E+01      0.1301691931E+02
          0                 2           2             5    7     1      -0.4365831949E-01       5    8    1        -0.2380561404E+01      0.5814851324E+01
          0                 3           2             5    7     1       0.2972960854E-02       5    8    1         0.1666390657E+00      0.4070387535E+00
          0                 4           2             5    7     1      -0.1182969249E-03       5    8    1        -0.6815548125E-02      0.1664791184E-01
          0                 5           1             5    7     1       0.1458653832E-05       5    8    1         0.8637399196E-04      0.2110043990E-03

    ------------------------------------------------
       NWT REQUIRED            5 OUTER ITERATIONS 
       AND A TOTAL OF          9 INNER ITERATIONS.
    ------------------------------------------------

 NO OUTPUT CONTROL FOR STRESS PERIOD   46   TIME STEP    5
 
 SOLVING FOR HEAD 
                                                   Max.-Head-Change                         Max.-Flux-Residual
  Residual-Control   Outer-Iter.   Inner-Iter.     Column Row Layer    Maximum-Head-Change  Column Row Layer    Maximum-Flux-Residual          L2-NORM 
          0                 1           2             5    7     1       0.9296739712E-01       5    8    1         0.4971868423E+01      0.1276966747E+02
          0                 2           2             4    7     1      -0.4361155620E-01       5    8    1        -0.2367052512E+01      0.5793226865E+01
          0                 3           2             4    7     1       0.2969775199E-02       5    8    1         0.1656934426E+00      0.4055250063E+00
          0                 4           2             4    7     1      -0.1181701708E-03       5    8    1        -0.6776872119E-02      0.1658599936E-01
          0                 5           1             4    7     1       0.1457089321E-05       5    8    1         0.8588385845E-04      0.2101958079E-03

    ------------------------------------------------
       NWT REQUIRED            5 OUTER ITERATIONS 
       AND A TOTAL OF          9 INNER ITERATIONS.
    ------------------------------------------------

 NO OUTPUT CONTROL FOR STRESS PERIOD   46   TIME STEP    6
 
 SOLVING FOR HEAD 
                                                   Max.-Head-Change                         Max.-Flux-Residual
  Residual-Control   Outer-Iter.   Inner-Iter.     Column Row Layer    Maximum-Head-Change  Column Row Layer    Maximum-Flux-Residual          L2-NORM 
          0                 1           2             5    7     1       0.9170515432E-01       5    7    1         0.4858673775E+01      0.1253427064E+02
          0                 2           2             4    7     1      -0.4358098232E-01       5    7    1        -0.2355738288E+01      0.5772502974E+01
          0                 3           2             4    7     1       0.2967692794E-02       5    7    1         0.1649011583E+00      0.4040743016E+00
          0                 4           2             4    7     1      -0.1180873118E-03       5    7    1        -0.6744468972E-02      0.1652666559E-01
          0                 5           1             4    7     1       0.1456067521E-05       5    7    1         0.8547321499E-04      0.2094439609E-03

    ------------------------------------------------
       NWT REQUIRED            5 OUTER ITERATIONS 
       AND A TOTAL OF          9 INNER ITERATIONS.
    ------------------------------------------------

 NO OUTPUT CONTROL FOR STRESS PERIOD   46   TIME STEP    7
 
 SOLVING FOR HEAD 
                                                   Max.-Head-Change                         Max.-Flux-Residual
  Residual-Control   Outer-Iter.   Inner-Iter.     Column Row Layer    Maximum-Head-Change  Column Row Layer    Maximum-Flux-Residual          L2-NORM 
          0                 1           2             5    7     1       0.9046701542E-01       5    7    1         0.4793073403E+01      0.1230991070E+02
          0                 2           2             4    7     1      -0.4354680526E-01       5    7    1        -0.2349179465E+01      0.5752626229E+01
          0                 3           2             4    7     1       0.2965365060E-02       5    7    1         0.1644420238E+00      0.4026828988E+00
          0                 4           2             4    7     1      -0.1179946910E-03       5    7    1        -0.6725690426E-02      0.1646975723E-01
          0                 5           1             4    7     1       0.1454925642E-05       5    7    1         0.8523522365E-04      0.2088502530E-03

    ------------------------------------------------
       NWT REQUIRED            5 OUTER ITERATIONS 
       AND A TOTAL OF          9 INNER ITERATIONS.
    ------------------------------------------------

 NO OUTPUT CONTROL FOR STRESS PERIOD   46   TIME STEP    8
 
 SOLVING FOR HEAD 
                                                   Max.-Head-Change                         Max.-Flux-Residual
  Residual-Control   Outer-Iter.   Inner-Iter.     Column Row Layer    Maximum-Head-Change  Column Row Layer    Maximum-Flux-Residual          L2-NORM 
          0                 1           2             5    7     1       0.8925365003E-01       5    7    1         0.4728722914E+01      0.1209583581E+02
          0                 2           2             4    7     1      -0.4350934610E-01       5    7    1        -0.2342745690E+01      0.5733548069E+01
          0                 3           2             4    7     1       0.2962813859E-02       5    7    1         0.1639916444E+00      0.4013473995E+00
          0                 4           2             4    7     1      -0.1178931782E-03       5    7    1        -0.6707269948E-02      0.1641513542E-01
          0                 5           1             4    7     1       0.1453673764E-05       5    7    1         0.8500177864E-04      0.2080307140E-03

    ------------------------------------------------
       NWT REQUIRED            5 OUTER ITERATIONS 
       AND A TOTAL OF          9 INNER ITERATIONS.
    ------------------------------------------------

 NO OUTPUT CONTROL FOR STRESS PERIOD   46   TIME STEP    9
 
 SOLVING FOR HEAD 
                                                   Max.-Head-Change                         Max.-Flux-Residual
  Residual-Control   Outer-Iter.   Inner-Iter.     Column Row Layer    Maximum-Head-Change  Column Row Layer    Maximum-Flux-Residual          L2-NORM 
          0                 1           2             4    7     1       0.8864688424E-01       5    7    1         0.4665665108E+01      0.1189136073E+02
          0                 2           2             4    7     1      -0.4346888534E-01       5    7    1        -0.2336441011E+01      0.5715222635E+01
          0                 3           2             4    7     1       0.2960058291E-02       5    7    1         0.1635503034E+00      0.4000645930E+00
          0                 4           2             4    7     1      -0.1177835332E-03       5    7    1        -0.6689219143E-02      0.1636267132E-01
          0                 5           1             4    7     1       0.1452322081E-05       5    7    1         0.8477301321E-04      0.2073660348E-03

    ------------------------------------------------
       NWT REQUIRED            5 OUTER ITERATIONS 
       AND A TOTAL OF          9 INNER ITERATIONS.
    ------------------------------------------------

 NO OUTPUT CONTROL FOR STRESS PERIOD   46   TIME STEP   10
 
 SOLVING FOR HEAD 
                                                   Max.-Head-Change                         Max.-Flux-Residual
  Residual-Control   Outer-Iter.   Inner-Iter.     Column Row Layer    Maximum-Head-Change  Column Row Layer    Maximum-Flux-Residual          L2-NORM 
          0                 1           2             4    7     1       0.8820272011E-01       4    7    1         0.4614417773E+01      0.1169586430E+02
          0                 2           2             4    7     1      -0.4342569401E-01       4    7    1        -0.2331319005E+01      0.5697609001E+01
          0                 3           2             4    7     1       0.2957116809E-02       4    7    1         0.1631916506E+00      0.3988316144E+00
          0                 4           2             4    7     1      -0.1176664905E-03       4    7    1        -0.6674550727E-02      0.1631223977E-01
          0                 5           1             4    7     1       0.1450879106E-05       4    7    1         0.8458714115E-04      0.2067552354E-03

    ------------------------------------------------
       NWT REQUIRED            5 OUTER ITERATIONS 
       AND A TOTAL OF          9 INNER ITERATIONS.
    ------------------------------------------------

 NO OUTPUT CONTROL FOR STRESS PERIOD   46   TIME STEP   11
 
 SOLVING FOR HEAD 
                                                   Max.-Head-Change                         Max.-Flux-Residual
  Residual-Control   Outer-Iter.   Inner-Iter.     Column Row Layer    Maximum-Head-Change  Column Row Layer    Maximum-Flux-Residual          L2-NORM 
          0                 1           2             4    7     1       0.8773350045E-01       4    7    1         0.4591352789E+01      0.1150876218E+02
          0                 2           2             4    7     1      -0.4338006463E-01       4    7    1        -0.2329013745E+01      0.5680667932E+01
          0                 3           2             4    7     1       0.2954009331E-02       4    7    1         0.1630302637E+00      0.3976457175E+00
          0                 4           2             4    7     1      -0.1175428425E-03       4    7    1        -0.6667950086E-02      0.1626373695E-01
          0                 5           1             4    7     1       0.1449354248E-05       4    7    1         0.8450348969E-04      0.2061150362E-03

    ------------------------------------------------
       NWT REQUIRED            5 OUTER ITERATIONS 
       AND A TOTAL OF          9 INNER ITERATIONS.
    ------------------------------------------------

 NO OUTPUT CONTROL FOR STRESS PERIOD   46   TIME STEP   12
 
 SOLVING FOR HEAD 
                                                   Max.-Head-Change                         Max.-Flux-Residual
  Residual-Control   Outer-Iter.   Inner-Iter.     Column Row Layer    Maximum-Head-Change  Column Row Layer    Maximum-Flux-Residual          L2-NORM 
          0                 1           2             4    7     1       0.8724136610E-01       4    7    1         0.4566967240E+01      0.1132951867E+02
          0                 2           2             4    7     1      -0.4333220122E-01       4    7    1        -0.2326576268E+01      0.5664362472E+01
          0                 3           2             4    7     1       0.2950749748E-02       4    7    1         0.1628596232E+00      0.3965043139E+00
          0                 4           2             4    7     1      -0.1174131412E-03       4    7    1        -0.6660970947E-02      0.1621705330E-01
          0                 5           1             4    7     1       0.1447754452E-05       4    7    1         0.8441500950E-04      0.2055214739E-03

    ------------------------------------------------
       NWT REQUIRED            5 OUTER ITERATIONS 
       AND A TOTAL OF          9 INNER ITERATIONS.
    ------------------------------------------------

 NO OUTPUT CONTROL FOR STRESS PERIOD   46   TIME STEP   13
 
 SOLVING FOR HEAD 
                                                   Max.-Head-Change                         Max.-Flux-Residual
  Residual-Control   Outer-Iter.   Inner-Iter.     Column Row Layer    Maximum-Head-Change  Column Row Layer    Maximum-Flux-Residual          L2-NORM 
          0                 1           2             4    7     1       0.8672885712E-01       4    7    1         0.4541400915E+01      0.1115765654E+02
          0                 2           2             4    7     1      -0.4328235331E-01       4    7    1        -0.2324020675E+01      0.5648660227E+01
          0                 3           2             4    7     1       0.2947355052E-02       4    7    1         0.1626807162E+00      0.3954051371E+00
          0                 4           2             4    7     1      -0.1172780643E-03       4    7    1        -0.6653653712E-02      0.1617209688E-01
          0                 5           1             4    7     1       0.1446089128E-05       4    7    1         0.8432228265E-04      0.2049516996E-03

    ------------------------------------------------
       NWT REQUIRED            5 OUTER ITERATIONS 
       AND A TOTAL OF          9 INNER ITERATIONS.
    ------------------------------------------------

 NO OUTPUT CONTROL FOR STRESS PERIOD   46   TIME STEP   14
 
 SOLVING FOR HEAD 
                                                   Max.-Head-Change                         Max.-Flux-Residual
  Residual-Control   Outer-Iter.   Inner-Iter.     Column Row Layer    Maximum-Head-Change  Column Row Layer    Maximum-Flux-Residual          L2-NORM 
          0                 1           2             4    7     1       0.8619808354E-01       4    7    1         0.4514771099E+01      0.1099272091E+02
          0                 2           2             4    7     1      -0.4323072858E-01       4    7    1        -0.2321358818E+01      0.5633529877E+01
          0                 3           2             4    7     1       0.2943839383E-02       4    7    1         0.1624943720E+00      0.3943459945E+00
          0                 4           2             4    7     1      -0.1171381737E-03       4    7    1        -0.6646032296E-02      0.1612878213E-01
          0                 5           1             4    7     1       0.1444364099E-05       4    7    1         0.8422570045E-04      0.2048005562E-03

    ------------------------------------------------
       NWT REQUIRED            5 OUTER ITERATIONS 
       AND A TOTAL OF          9 INNER ITERATIONS.
    ------------------------------------------------

 NO OUTPUT CONTROL FOR STRESS PERIOD   46   TIME STEP   15
 
 SOLVING FOR HEAD 
                                                   Max.-Head-Change                         Max.-Flux-Residual
  Residual-Control   Outer-Iter.   Inner-Iter.     Column Row Layer    Maximum-Head-Change  Column Row Layer    Maximum-Flux-Residual          L2-NORM 
          0                 1           2             4    7     1       0.8565114729E-01       4    7    1         0.4487194387E+01      0.1083429272E+02
          0                 2           2             4    7     1      -0.4317752726E-01       4    7    1        -0.2318602120E+01      0.5618941460E+01
          0                 3           2             4    7     1       0.2940216373E-02       4    7    1         0.1623013902E+00      0.3933247882E+00
          0                 4           2             4    7     1      -0.1169940120E-03       4    7    1        -0.6638139393E-02      0.1608701073E-01
          0                 5           1             4    7     1       0.1442586760E-05       4    7    1         0.8412567945E-04      0.2038728530E-03

    ------------------------------------------------
       NWT REQUIRED            5 OUTER ITERATIONS 
       AND A TOTAL OF          9 INNER ITERATIONS.
    ------------------------------------------------

 NO OUTPUT CONTROL FOR STRESS PERIOD   46   TIME STEP   16
 
 SOLVING FOR HEAD 
                                                   Max.-Head-Change                         Max.-Flux-Residual
  Residual-Control   Outer-Iter.   Inner-Iter.     Column Row Layer    Maximum-Head-Change  Column Row Layer    Maximum-Flux-Residual          L2-NORM 
          0                 1           2             4    7     1       0.8509001342E-01       4    7    1         0.4458779749E+01      0.1068199457E+02
          0                 2           2             4    7     1      -0.4312294289E-01       4    7    1        -0.2315761601E+01      0.5604868328E+01
          0                 3           2             4    7     1       0.2936499203E-02       4    7    1         0.1621025422E+00      0.3923396533E+00
          0                 4           2             4    7     1      -0.1168461030E-03       4    7    1        -0.6630006555E-02      0.1604671899E-01
          0                 5           1             4    7     1       0.1440763046E-05       4    7    1         0.8402261210E-04      0.2033652721E-03

    ------------------------------------------------
       NWT REQUIRED            5 OUTER ITERATIONS 
       AND A TOTAL OF          9 INNER ITERATIONS.
    ------------------------------------------------

 NO OUTPUT CONTROL FOR STRESS PERIOD   46   TIME STEP   17
 
 SOLVING FOR HEAD 
                                                   Max.-Head-Change                         Max.-Flux-Residual
  Residual-Control   Outer-Iter.   Inner-Iter.     Column Row Layer    Maximum-Head-Change  Column Row Layer    Maximum-Flux-Residual          L2-NORM 
          0                 1           2             4    7     1       0.8451652061E-01       4    7    1         0.4429629063E+01      0.1053547093E+02
          0                 2           2             4    7     1      -0.4306715452E-01       4    7    1        -0.2312847449E+01      0.5591285228E+01
          0                 3           2             4    7     1       0.2932700061E-02       4    7    1         0.1618985412E+00      0.3913888216E+00
          0                 4           2             4    7     1      -0.1166949327E-03       4    7    1        -0.6621662959E-02      0.1600782980E-01
          0                 5           1             4    7     1       0.1438899119E-05       4    7    1         0.8391687288E-04      0.2028686015E-03

    ------------------------------------------------
       NWT REQUIRED            5 OUTER ITERATIONS 
       AND A TOTAL OF          9 INNER ITERATIONS.
    ------------------------------------------------

 NO OUTPUT CONTROL FOR STRESS PERIOD   46   TIME STEP   18
 
 SOLVING FOR HEAD 
                                                   Max.-Head-Change                         Max.-Flux-Residual
  Residual-Control   Outer-Iter.   Inner-Iter.     Column Row Layer    Maximum-Head-Change  Column Row Layer    Maximum-Flux-Residual          L2-NORM 
          0                 1           2             4    7     1       0.8393224614E-01       4    7    1         0.4399830447E+01      0.1039439649E+02
          0                 2           2             4    7     1      -0.4301031572E-01       4    7    1        -0.2309868481E+01      0.5578168201E+01
          0                 3           2             4    7     1       0.2928829406E-02       4    7    1         0.1616900039E+00      0.3904706156E+00
          0                 4           2             4    7     1      -0.1165409165E-03       4    7    1        -0.6613133807E-02      0.1597027512E-01
          0                 5           1             4    7     1       0.1437000356E-05       4    7    1         0.8380879899E-04      0.2023949085E-03

    ------------------------------------------------
       NWT REQUIRED            5 OUTER ITERATIONS 
       AND A TOTAL OF          9 INNER ITERATIONS.
    ------------------------------------------------

 NO OUTPUT CONTROL FOR STRESS PERIOD   46   TIME STEP   19
 
 SOLVING FOR HEAD 
                                                   Max.-Head-Change                         Max.-Flux-Residual
  Residual-Control   Outer-Iter.   Inner-Iter.     Column Row Layer    Maximum-Head-Change  Column Row Layer    Maximum-Flux-Residual          L2-NORM 
          0                 1           2             4    7     1       0.8333891897E-01       4    7    1         0.4369480087E+01      0.1025846244E+02
          0                 2           2             4    7     1      -0.4295259484E-01       4    7    1        -0.2306834315E+01      0.5565494837E+01
          0                 3           2             4    7     1       0.2924898700E-02       4    7    1         0.1614776039E+00      0.3895834678E+00
          0                 4           2             4    7     1      -0.1163845102E-03       4    7    1        -0.6604446684E-02      0.1593399095E-01
          0                 5           1             4    7     1       0.1435071124E-05       4    7    1         0.8369867055E-04      0.2019331455E-03

    ------------------------------------------------
       NWT REQUIRED            5 OUTER ITERATIONS 
       AND A TOTAL OF          9 INNER ITERATIONS.
    ------------------------------------------------

 NO OUTPUT CONTROL FOR STRESS PERIOD   46   TIME STEP   20
 
 SOLVING FOR HEAD 
                                                   Max.-Head-Change                         Max.-Flux-Residual
  Residual-Control   Outer-Iter.   Inner-Iter.     Column Row Layer    Maximum-Head-Change  Column Row Layer    Maximum-Flux-Residual          L2-NORM 
          0                 1           2             4    7     1       0.8273789099E-01       4    7    1         0.4338653204E+01      0.1012739651E+02
          0                 2           2             4    7     1      -0.4289412351E-01       4    7    1        -0.2303752476E+01      0.5553244725E+01
          0                 3           2             4    7     1       0.2920916905E-02       4    7    1         0.1612618677E+00      0.3887259476E+00
          0                 4           2             4    7     1      -0.1162260717E-03       4    7    1        -0.6595623076E-02      0.1589891817E-01
          0                 5           1             4    7     1       0.1433117922E-05       4    7    1         0.8358688456E-04      0.2014900031E-03

    ------------------------------------------------
       NWT REQUIRED            5 OUTER ITERATIONS 
       AND A TOTAL OF          9 INNER ITERATIONS.
    ------------------------------------------------

 NO OUTPUT CONTROL FOR STRESS PERIOD   46   TIME STEP   21
 
 SOLVING FOR HEAD 
                                                   Max.-Head-Change                         Max.-Flux-Residual
  Residual-Control   Outer-Iter.   Inner-Iter.     Column Row Layer    Maximum-Head-Change  Column Row Layer    Maximum-Flux-Residual          L2-NORM 
          0                 1           2             4    7     1       0.8213040847E-01       4    7    1         0.4307419885E+01      0.1000092903E+02
          0                 2           2             4    7     1      -0.4283502309E-01       4    7    1        -0.2300629975E+01      0.5541397432E+01
          0                 3           2             4    7     1       0.2916892285E-02       4    7    1         0.1610432860E+00      0.3878966262E+00
          0                 4           2             4    7     1      -0.1160659285E-03       4    7    1        -0.6586683104E-02      0.1586499892E-01
          0                 5           1             4    7     1       0.1431143100E-05       4    7    1         0.8347357220E-04      0.2010696577E-03

    ------------------------------------------------
       NWT REQUIRED            5 OUTER ITERATIONS 
       AND A TOTAL OF          9 INNER ITERATIONS.
    ------------------------------------------------

 NO OUTPUT CONTROL FOR STRESS PERIOD   46   TIME STEP   22
 
 SOLVING FOR HEAD 
                                                   Max.-Head-Change                         Max.-Flux-Residual
  Residual-Control   Outer-Iter.   Inner-Iter.     Column Row Layer    Maximum-Head-Change  Column Row Layer    Maximum-Flux-Residual          L2-NORM 
          0                 1           2             4    7     1       0.8151802676E-01       4    7    1         0.4275866366E+01      0.9878828319E+01
          0                 2           2             4    7     1      -0.4277544501E-01       4    7    1        -0.2297475437E+01      0.5529935790E+01
          0                 3           2             4    7     1       0.2912835150E-02       4    7    1         0.1608224625E+00      0.3870943010E+00
          0                 4           2             4    7     1      -0.1159044920E-03       4    7    1        -0.6577651445E-02      0.1583218432E-01
          0                 5           1             4    7     1       0.1429152709E-05       4    7    1         0.8335911684E-04      0.2006437204E-03

    ------------------------------------------------
       NWT REQUIRED            5 OUTER ITERATIONS 
       AND A TOTAL OF          9 INNER ITERATIONS.
    ------------------------------------------------

 NO OUTPUT CONTROL FOR STRESS PERIOD   46   TIME STEP   23
 
 SOLVING FOR HEAD 
                                                   Max.-Head-Change                         Max.-Flux-Residual
  Residual-Control   Outer-Iter.   Inner-Iter.     Column Row Layer    Maximum-Head-Change  Column Row Layer    Maximum-Flux-Residual          L2-NORM 
          0                 1           2             4    7     1       0.8090179100E-01       4    7    1         0.4244051658E+01      0.9760860043E+01
          0                 2           2             4    7     1      -0.4271549105E-01       4    7    1        -0.2294294765E+01      0.5518841193E+01
          0                 3           2             4    7     1       0.2908752431E-02       4    7    1         0.1605998104E+00      0.3863172505E+00
          0                 4           2             4    7     1      -0.1157420369E-03       4    7    1        -0.6568544973E-02      0.1580036267E-01
          0                 5           1             4    7     1       0.1427149323E-05       4    7    1         0.8324370879E-04      0.2002369884E-03

    ------------------------------------------------
       NWT REQUIRED            5 OUTER ITERATIONS 
       AND A TOTAL OF          9 INNER ITERATIONS.
    ------------------------------------------------

 NO OUTPUT CONTROL FOR STRESS PERIOD   46   TIME STEP   24
 
 SOLVING FOR HEAD 
                                                   Max.-Head-Change                         Max.-Flux-Residual
  Residual-Control   Outer-Iter.   Inner-Iter.     Column Row Layer    Maximum-Head-Change  Column Row Layer    Maximum-Flux-Residual          L2-NORM 
          0                 1           2             4    7     1       0.8028266703E-01       4    7    1         0.4212029944E+01      0.9646815964E+01
          0                 2           2             4    7     1      -0.4265525526E-01       4    7    1        -0.2291093377E+01      0.5508097789E+01
          0                 3           2             4    7     1       0.2904650530E-02       4    7    1         0.1603757089E+00      0.3855645260E+00
          0                 4           2             4    7     1      -0.1155788188E-03       4    7    1        -0.6559379231E-02      0.1576951376E-01
          0                 5           1             4    7     1       0.1425136977E-05       4    7    1         0.8312755040E-04      0.1998432175E-03

    ------------------------------------------------
       NWT REQUIRED            5 OUTER ITERATIONS 
       AND A TOTAL OF          9 INNER ITERATIONS.
    ------------------------------------------------

 NO OUTPUT CONTROL FOR STRESS PERIOD   46   TIME STEP   25
 
 SOLVING FOR HEAD 
                                                   Max.-Head-Change                         Max.-Flux-Residual
  Residual-Control   Outer-Iter.   Inner-Iter.     Column Row Layer    Maximum-Head-Change  Column Row Layer    Maximum-Flux-Residual          L2-NORM 
          0                 1           2             4    7     1       0.7966180664E-01       4    7    1         0.4179865716E+01      0.9536503121E+01
          0                 2           2             4    7     1      -0.4259484978E-01       4    7    1        -0.2287877725E+01      0.5497690123E+01
          0                 3           2             4    7     1       0.2900537085E-02       4    7    1         0.1601506095E+00      0.3848353901E+00
          0                 4           2             4    7     1      -0.1154151412E-03       4    7    1        -0.6550172675E-02      0.1573964125E-01
          0                 5           1             4    7     1       0.1423118581E-05       4    7    1         0.8301086382E-04      0.1994806842E-03

    ------------------------------------------------
       NWT REQUIRED            5 OUTER ITERATIONS 
       AND A TOTAL OF          9 INNER ITERATIONS.
    ------------------------------------------------

 NO OUTPUT CONTROL FOR STRESS PERIOD   46   TIME STEP   26
 
 SOLVING FOR HEAD 
                                                   Max.-Head-Change                         Max.-Flux-Residual
  Residual-Control   Outer-Iter.   Inner-Iter.     Column Row Layer    Maximum-Head-Change  Column Row Layer    Maximum-Flux-Residual          L2-NORM 
          0                 1           2             4    7     1       0.7904014578E-01       4    7    1         0.4147611480E+01      0.9429744288E+01
          0                 2           2             4    7     1      -0.4253436353E-01       4    7    1        -0.2284652942E+01      0.5487603936E+01
          0                 3           2             4    7     1       0.2896418147E-02       4    7    1         0.1599248715E+00      0.3841288357E+00
          0                 4           2             4    7     1      -0.1152512450E-03       4    7    1        -0.6540939987E-02      0.1571070117E-01
          0                 5           1             4    7     1       0.1421097722E-05       4    7    1         0.8289386005E-04      0.1990982348E-03

    ------------------------------------------------
       NWT REQUIRED            5 OUTER ITERATIONS 
       AND A TOTAL OF          9 INNER ITERATIONS.
    ------------------------------------------------

 NO OUTPUT CONTROL FOR STRESS PERIOD   46   TIME STEP   27
 
 SOLVING FOR HEAD 
                                                   Max.-Head-Change                         Max.-Flux-Residual
  Residual-Control   Outer-Iter.   Inner-Iter.     Column Row Layer    Maximum-Head-Change  Column Row Layer    Maximum-Flux-Residual          L2-NORM 
          0                 1           2             4    7     1       0.7841854485E-01       4    7    1         0.4115315758E+01      0.9326357694E+01
          0                 2           2             4    7     1      -0.4247388472E-01       4    7    1        -0.2281424118E+01      0.5477825120E+01
          0                 3           2             4    7     1       0.2892299727E-02       4    7    1         0.1596988512E+00      0.3834438645E+00
          0                 4           2             4    7     1      -0.1150873699E-03       4    7    1        -0.6531695774E-02      0.1568265948E-01
          0                 5           1             4    7     1       0.1419077310E-05       4    7    1         0.8277672964E-04      0.1990973817E-03

    ------------------------------------------------
       NWT REQUIRED            5 OUTER ITERATIONS 
       AND A TOTAL OF          9 INNER ITERATIONS.
    ------------------------------------------------

 NO OUTPUT CONTROL FOR STRESS PERIOD   46   TIME STEP   28
 
 SOLVING FOR HEAD 
                                                   Max.-Head-Change                         Max.-Flux-Residual
  Residual-Control   Outer-Iter.   Inner-Iter.     Column Row Layer    Maximum-Head-Change  Column Row Layer    Maximum-Flux-Residual          L2-NORM 
          0                 1           2             4    7     1       0.7779779580E-01       4    7    1         0.4083023157E+01      0.9226200598E+01
          0                 2           2             4    7     1      -0.4241348826E-01       4    7    1        -0.2278195597E+01      0.5468341805E+01
          0                 3           2             4    7     1       0.2888186920E-02       4    7    1         0.1594728526E+00      0.3827793700E+00
          0                 4           2             4    7     1      -0.1149237176E-03       4    7    1        -0.6522452427E-02      0.1565542386E-01
          0                 5           1             4    7     1       0.1417059251E-05       4    7    1         0.8265957717E-04      0.1983971415E-03

    ------------------------------------------------
       NWT REQUIRED            5 OUTER ITERATIONS 
       AND A TOTAL OF          9 INNER ITERATIONS.
    ------------------------------------------------

 NO OUTPUT CONTROL FOR STRESS PERIOD   46   TIME STEP   29
 
 SOLVING FOR HEAD 
                                                   Max.-Head-Change                         Max.-Flux-Residual
  Residual-Control   Outer-Iter.   Inner-Iter.     Column Row Layer    Maximum-Head-Change  Column Row Layer    Maximum-Flux-Residual          L2-NORM 
          0                 1           2             4    7     1       0.7717848781E-01       4    7    1         0.4050767522E+01      0.9129107267E+01
          0                 2           2             4    7     1      -0.4235322930E-01       4    7    1        -0.2274970644E+01      0.5459140153E+01
          0                 3           2             4    7     1       0.2884083484E-02       4    7    1         0.1592471043E+00      0.3821341471E+00
          0                 4           2             4    7     1      -0.1147604378E-03       4    7    1        -0.6513219309E-02      0.1562894466E-01
          0                 5           1             4    7     1       0.1415045896E-05       4    7    1         0.8254255886E-04      0.1981445424E-03

    ------------------------------------------------
       NWT REQUIRED            5 OUTER ITERATIONS 
       AND A TOTAL OF          9 INNER ITERATIONS.
    ------------------------------------------------

 NO OUTPUT CONTROL FOR STRESS PERIOD   46   TIME STEP   30



 STREAM LISTING     PERIOD     46   STEP       30

 LAYER ROW COL. STREAM  RCH.  FLOW INTO     FLOW TO   FLOW OUT OF   OVRLND.     DIRECT     STREAM       STREAM     STREAM     STREAM   STREAMBED  STREAMBED
                SEG.NO.  NO.  STRM. RCH.    AQUIFER    STRM. RCH.    RUNOFF     PRECIP       ET          HEAD       DEPTH      WIDTH   CONDCTNC.   GRADIENT

   1    1    1     1     1    1.9000E+01  2.1427E-01   1.8786E+01  0.000E+00  0.000E+00  0.000E+00  1.09413E+03  1.082E+00  1.166E+01  5.249E-02  1.361E+00
   1    2    2     1     2    1.8786E+01  3.3054E-01   1.8455E+01  0.000E+00  0.000E+00  0.000E+00  1.08914E+03  1.077E+00  1.158E+01  8.107E-02  1.359E+00
   1    3    3     1     3    1.8455E+01  2.8064E-01   1.8175E+01  0.000E+00  0.000E+00  0.000E+00  1.08349E+03  1.072E+00  1.149E+01  6.892E-02  1.357E+00
   1    3    4     1     4    1.8175E+01  2.5740E-01   1.7917E+01  0.000E+00  0.000E+00  0.000E+00  1.07848E+03  1.068E+00  1.140E+01  6.328E-02  1.356E+00
   1    4    5     2     1    1.5917E+01  3.0542E-01   1.5612E+01  0.000E+00  0.000E+00  0.000E+00  1.07285E+03  9.157E-01  1.200E+01  7.800E-02  1.305E+00
   1    5    6     2     2    1.5612E+01  2.3438E-01   1.5377E+01  0.000E+00  0.000E+00  0.000E+00  1.06742E+03  9.063E-01  1.200E+01  6.000E-02  1.302E+00
   1    6    6     2     3    1.5377E+01  2.3388E-01   1.5143E+01  0.000E+00  0.000E+00  0.000E+00  1.06269E+03  8.980E-01  1.200E+01  6.000E-02  1.299E+00
   1    7    6     2     4    1.5143E+01  2.3338E-01   1.4910E+01  0.000E+00  0.000E+00  0.000E+00  1.05797E+03  8.897E-01  1.200E+01  6.000E-02  1.297E+00
   1    8    6     2     5    1.4910E+01  2.3289E-01   1.4677E+01  0.000E+00  0.000E+00  0.000E+00  1.05324E+03  8.814E-01  1.200E+01  6.000E-02  1.294E+00
   1    3    5     3     1    2.0000E+00  2.8252E-01   1.7175E+00  0.000E+00  0.000E+00  0.000E+00  1.07555E+03  1.909E+00  9.636E+00  7.227E-02  1.955E+00
   1    3    6     3     2    1.7175E+00  2.4905E-01   1.4684E+00  0.000E+00  0.000E+00  0.000E+00  1.07264E+03  1.727E+00  8.909E+00  6.682E-02  1.864E+00
   1    3    7     3     3    1.4684E+00  1.9718E-01   1.2712E+00  0.000E+00  0.000E+00  0.000E+00  1.06987E+03  1.555E+00  8.218E+00  5.547E-02  1.777E+00
   1    4    8     3     4    1.2712E+00  2.2567E-01   1.0456E+00  0.000E+00  0.000E+00  0.000E+00  1.06682E+03  1.364E+00  7.455E+00  6.709E-02  1.682E+00
   1    5    8     3     5    1.0456E+00  1.5790E-01   8.8768E-01  0.000E+00  0.000E+00  0.000E+00  1.06362E+03  1.164E+00  6.655E+00  4.991E-02  1.582E+00
   1    6    8     3     6    8.8768E-01  5.5980E-02   8.3170E-01  0.000E+00  0.000E+00  0.000E+00  1.06158E+03  1.036E+00  6.145E+00  1.844E-02  1.518E+00
   1    5   10     4     1    1.0000E+01  9.0919E-02   9.9091E+00  0.000E+00  0.000E+00  0.000E+00  1.07836E+03  6.368E-01  1.000E+01  2.500E-02  1.212E+00
   1    5    9     4     2    9.9091E+00  1.8158E-01   9.7275E+00  0.000E+00  0.000E+00  0.000E+00  1.07154E+03  6.315E-01  1.000E+01  5.000E-02  1.211E+00
   1    6    8     4     3    9.7275E+00  1.2689E-01   9.6006E+00  0.000E+00  0.000E+00  0.000E+00  1.06381E+03  6.256E-01  1.000E+01  3.500E-02  1.209E+00
   1    6    8     5     1    1.0432E+01  2.2686E-01   1.0205E+01  0.000E+00  0.000E+00  0.000E+00  1.05868E+03  6.790E-01  1.542E+01  6.166E-02  1.226E+00
   1    7    7     5     2    1.0205E+01  2.7894E-01   9.9265E+00  0.000E+00  0.000E+00  0.000E+00  1.05417E+03  6.732E-01  1.519E+01  7.594E-02  1.224E+00
   1    8    7     5     3    9.9265E+00  1.9221E-01   9.7343E+00  0.000E+00  0.000E+00  0.000E+00  1.04992E+03  6.676E-01  1.497E+01  5.241E-02  1.223E+00
   1    8    6     5     4    9.7343E+00  1.3577E-01   9.5985E+00  0.000E+00  0.000E+00  0.000E+00  1.04691E+03  6.637E-01  1.482E+01  3.706E-02  1.221E+00
   1    9    6     6     1    2.4276E+01  2.5176E-01   2.4024E+01  0.000E+00  0.000E+00  0.000E+00  1.04392E+03  1.196E+00  1.200E+01  6.000E-02  1.399E+00
   1   10    7     6     2    2.4024E+01  2.5131E-01   2.3773E+01  0.000E+00  0.000E+00  0.000E+00  1.03937E+03  1.188E+00  1.200E+01  6.000E-02  1.396E+00
   1   11    7     6     3    2.3773E+01  2.5086E-01   2.3522E+01  0.000E+00  0.000E+00  0.000E+00  1.03482E+03  1.181E+00  1.200E+01  6.000E-02  1.394E+00
   1   12    7     6     4    2.3522E+01  2.5041E-01   2.3271E+01  0.000E+00  0.000E+00  0.000E+00  1.03026E+03  1.173E+00  1.200E+01  6.000E-02  1.391E+00
   1   13    7     6     5    2.3271E+01  1.1899E-02   2.3259E+01  0.000E+00  0.000E+00  0.000E+00  1.02708E+03  1.169E+00  1.200E+01  2.400E-02  1.653E-01
   1   14    9     7     1    1.5000E+02  1.3778E+00   1.4862E+02  0.000E+00  0.000E+00  0.000E+00  1.03987E+03  2.288E+00  5.529E+01  5.593E-01  8.211E-01
   1   13    8     7     2    1.4862E+02  1.9878E+00   1.4663E+02  0.000E+00  0.000E+00  0.000E+00  1.03478E+03  2.279E+00  5.525E+01  6.147E-01  1.078E+00
   1   13    7     7     3    1.4663E+02  1.7339E+00   1.4490E+02  0.000E+00  0.000E+00  0.000E+00  1.02969E+03  2.269E+00  5.521E+01  5.584E-01  1.035E+00
   1   13    6     8     1    1.6816E+02  1.1636E+00   1.6700E+02  0.000E+00  0.000E+00  0.000E+00  1.02481E+03  2.936E+00  4.258E+01  4.339E-01  8.939E-01
   1   13    5     8     2    1.6700E+02  3.9680E-01   1.6660E+02  0.000E+00  0.000E+00  0.000E+00  1.01856E+03  2.931E+00  4.250E+01  4.331E-01  3.054E-01
   1   13    4     8     3    1.6660E+02 -1.6988E+00   1.6830E+02  0.000E+00  0.000E+00  0.000E+00  1.01231E+03  2.936E+00  4.256E+01  4.338E+00 -1.306E-01
   1   13    3     8     4    1.6830E+02 -3.2868E+00   1.7159E+02  0.000E+00  0.000E+00  0.000E+00  1.00608E+03  2.952E+00  4.280E+01  4.362E+00 -2.512E-01
   1   13    2     8     5    1.7159E+02 -2.4842E+00   1.7407E+02  0.000E+00  0.000E+00  0.000E+00  9.99846E+02  2.971E+00  4.307E+01  4.389E+00 -1.887E-01
   1   13    1     8     6    1.7407E+02 -1.9574E+00   1.7603E+02  0.000E+00  0.000E+00  0.000E+00  9.94860E+02  2.985E+00  4.328E+01  2.646E+00 -2.466E-01





UNSATURATED ZONE PACKAGE VOLUMETRIC BUDGET FOR  TIME STEP    30 STRESS PERIOD   46
  ------------------------------------------------------------------------------



     CUMULATIVE VOLUMES      L**3       RATES FOR THIS TIME STEP      L**3/T
     ------------------                 ------------------------

           IN:                                      IN:
           ---                                      ---
        INFILTRATION =  1715970387.3652          INFILTRATION =          12.0668

          OUT:                                     OUT:
          ----                                     ----
              UZF ET =  1715106284.0538                UZF ET =          12.0675
        UZF RECHARGE =       73224.0000          UZF RECHARGE =       0.0000E+00

            IN - OUT =      790879.3113              IN - OUT =      -6.6304E-04

          STORAGE:                                 STORAGE:
          --------                                 --------
      STORAGE CHANGE =      790864.8884        STORAGE CHANGE =      -6.6294E-04

 PERCENT DISCREPANCY IS DIFFERENCE BETWEEN IN-OUT MINUS CHANGE IN STORAGE
 DIVIDED BY THE AVERAGE OF IN AND OUT TIMES 100

 PERCENT DISCREPANCY =           0.00     PERCENT DISCREPANCY =           0.00






1
  VOLUMETRIC BUDGET FOR AGRICULTURAL FIELDS AT  END OF TIME STEP   30, STRESS PERIOD  46
  ------------------------------------------------------------------------------

     CUMULATIVE VOLUMES      L**3       RATES FOR THIS TIME STEP      L**3/T
     ------------------                 ------------------------

           IN:                                      IN:
           ---                                      ---
               AG WELLS  =  1615591040.0000                 AG WELLS  =          11.2193
      DIVERSION SEGMENTS =           0.0000        DIVERSION SEGMENTS =           0.0000
       IRRIGATION PONDS  =           0.0000         IRRIGATION PONDS  =           0.0000
           GW IRRIGATION =           0.0000             GW IRRIGATION =           0.0000
           SW IRRIGATION =           0.0000             SW IRRIGATION =           0.0000
        SYSTEM LOSSES GW =           0.0000          SYSTEM LOSSES GW =           0.0000
        SYSTEM LOSSES SW =           0.0000          SYSTEM LOSSES SW =           0.0000

                TOTAL IN =  1615591040.0000                  TOTAL IN =          11.2193

          OUT:                                     OUT:
          ----                                     ----
               AG WELLS  =           0.0000                 AG WELLS  =           0.0000
      DIVERSION SEGMENTS =           0.0000        DIVERSION SEGMENTS =           0.0000
       IRRIGATION PONDS  =           0.0000         IRRIGATION PONDS  =           0.0000
           GW IRRIGATION =  1615591040.0000             GW IRRIGATION =          11.2193
           SW IRRIGATION =           0.0000             SW IRRIGATION =           0.0000
        SYSTEM LOSSES GW =           0.0000          SYSTEM LOSSES GW =           0.0000
        SYSTEM LOSSES SW =           0.0000          SYSTEM LOSSES SW =           0.0000

               TOTAL OUT =  1615591040.0000                 TOTAL OUT =          11.2193

                IN - OUT =           0.0000                  IN - OUT =           0.0000

     PERCENT DISCREPANCY =           0.00         PERCENT DISCREPANCY =           0.00



1
  VOLUMETRIC BUDGET FOR ENTIRE MODEL AT END OF TIME STEP   30, STRESS PERIOD  46
  ------------------------------------------------------------------------------

     CUMULATIVE VOLUMES      L**3       RATES FOR THIS TIME STEP      L**3/T
     ------------------                 ------------------------

           IN:                                      IN:
           ---                                      ---
             STORAGE     =  2107535232.0000               STORAGE     =          18.1912
       CONSTANT HEAD     =           0.0000         CONSTANT HEAD     =           0.0000
     HEAD DEP BOUNDS     =    33905076.0000       HEAD DEP BOUNDS     =           0.2886
      STREAM LEAKAGE     =  1451754624.0000        STREAM LEAKAGE     =          12.4003
        UZF RECHARGE     =       73223.9531          UZF RECHARGE     =           0.0000
               GW ET     =           0.0000                 GW ET     =           0.0000
     SURFACE LEAKAGE     =           0.0000       SURFACE LEAKAGE     =           0.0000
           AG WELLS      =           0.0000             AG WELLS      =           0.0000

                TOTAL IN =  3593268224.0000                  TOTAL IN =          30.8801

          OUT:                                     OUT:
          ----                                     ----
             STORAGE     =   728526912.0000               STORAGE     =           9.9448
       CONSTANT HEAD     =           0.0000         CONSTANT HEAD     =           0.0000
     HEAD DEP BOUNDS     =    34550852.0000       HEAD DEP BOUNDS     =           0.2888
      STREAM LEAKAGE     =  1196999168.0000        STREAM LEAKAGE     =           9.4272
        UZF RECHARGE     =           0.0000          UZF RECHARGE     =           0.0000
               GW ET     =    17603406.0000                 GW ET     =           0.0000
     SURFACE LEAKAGE     =           0.0000       SURFACE LEAKAGE     =           0.0000
           AG WELLS      =  1615591040.0000             AG WELLS      =          11.2193

               TOTAL OUT =  3593271296.0000                 TOTAL OUT =          30.8801

                IN - OUT =       -3072.0000                  IN - OUT =       7.6294E-06

     PERCENT DISCREPANCY =          -0.00         PERCENT DISCREPANCY =           0.00






         TIME SUMMARY AT END OF TIME STEP   30 IN STRESS PERIOD   46
                    SECONDS     MINUTES      HOURS       DAYS        YEARS
                    -----------------------------------------------------------
   TIME STEP LENGTH  87667.      1461.1      24.352      1.0147     2.77799E-03
 STRESS PERIOD TIME 2.63000E+06  43833.      730.56      30.440     8.33397E-02
         TOTAL TIME 1.18435E+08 1.97392E+06  32899.      1370.8      3.7530    
1
1
                            STRESS PERIOD NO.   47, LENGTH =   2630000.    
                            -----------------------------------------------

                              NUMBER OF TIME STEPS =    30

                               MULTIPLIER FOR DELT =     1.000

                            INITIAL TIME STEP SIZE =   87666.66    

 REUSING NON-PARAMETER GHB CELLS FROM LAST STRESS PERIOD

      2 GHB CELLS

 REUSING STREAM SEGMENT DATA FROM LAST STRESS PERIOD



            AREAL INFILTRATION RATE
 READING ON UNIT   19 WITH FORMAT: (FREE)              

            1           2           3           4           5           6           7           8           9          10
 ........................................................................................................................
   1   1.0000E-10  2.0000E-10   0.000       0.000       0.000       0.000       0.000       0.000       0.000       0.000    
   2   2.0000E-10  1.0000E-10  2.0000E-10   0.000       0.000      8.0000E-10  8.0000E-10  5.0000E-10   0.000       0.000    
   3    0.000      5.0000E-10  1.0000E-10  1.0000E-10  8.0000E-10  8.0000E-10  5.0000E-10  5.0000E-10   0.000       0.000    
   4   8.0000E-10  5.0000E-10  1.0000E-10  1.0000E-10  1.0000E-10  1.0000E-10  1.0000E-10  1.0000E-10  2.0000E-10   0.000    
   5   8.0000E-10  5.0000E-10  1.0000E-10  1.0000E-10  1.0000E-10  1.0000E-10  1.0000E-10  1.0000E-10  1.0000E-10  1.0000E-10
   6   8.0000E-10  5.0000E-10  5.0000E-10  2.0000E-10  2.0000E-10  1.0000E-10  1.0000E-10  1.0000E-10  1.0000E-10  5.0000E-10
   7   8.0000E-10  5.0000E-10  5.0000E-10  2.0000E-10  2.0000E-10  1.0000E-10  1.0000E-10  2.0000E-10  2.0000E-10   0.000    
   8    0.000      5.0000E-10  5.0000E-10  2.0000E-10  2.0000E-10  1.0000E-10  1.0000E-10  2.0000E-10  5.0000E-10   0.000    
   9    0.000      5.0000E-10  5.0000E-10  2.0000E-10  2.0000E-10  1.0000E-10  1.0000E-10  2.0000E-10  5.0000E-10   0.000    
  10    0.000      5.0000E-10  5.0000E-10  2.0000E-10  2.0000E-10  1.0000E-10  1.0000E-10  2.0000E-10  5.0000E-10  8.0000E-10
  11    0.000      1.0000E-10  1.0000E-10  1.0000E-10  1.0000E-10  1.0000E-10  1.0000E-10  2.0000E-10  5.0000E-10   0.000    
  12   1.0000E-10  1.0000E-10  1.0000E-10  1.0000E-10  1.0000E-10  1.0000E-10  1.0000E-10  1.0000E-10  2.0000E-10   0.000    
  13   1.0000E-10  1.0000E-10  2.0000E-10  2.0000E-10  2.0000E-10  2.0000E-10  2.0000E-10  1.0000E-10  1.0000E-10   0.000    
  14    0.000      2.0000E-10  5.0000E-10  5.0000E-10  5.0000E-10  5.0000E-10  5.0000E-10  2.0000E-10  1.0000E-10   0.000    
  15    0.000       0.000      8.0000E-10  8.0000E-10  8.0000E-10  8.0000E-10   0.000       0.000       0.000       0.000    

                  ET RATE =  5.000000E-09

 USING ET EXTINCTION DEPTH FROM PREVIOUS STRESS PERIOD. CURRENT PERIOD IS:      47

 USING EXTINCTION WATER CONTENT FROM PREVIOUS STRESS PERIOD. CURRENT PERIOD IS:      47

 USING AIR ENTRY PRESSURE FROM PREVIOUS STRESS PERIOD. CURRENT PERIOD IS:      47

 USING ROOT PRESSURE HEAD FROM PREVIOUS STRESS PERIOD. CURRENT PERIOD IS:      47

 USING ROOT ACTIVITY FROM PREVIOUS STRESS PERIOD. CURRENT PERIOD IS:      47

 PROCESSING AG STRESS PERIOD DATA

 READING AG STRESS PERIOD DATA

 READING IRRIGATION WELL

 NO IRRPOND OR REUSING IRRPOND DATA FROM LAST STRESS PERIOD

 END PROCESSING AG STRESS PERIOD DATA OPTIONS
 
 SOLVING FOR HEAD 
                                                   Max.-Head-Change                         Max.-Flux-Residual
  Residual-Control   Outer-Iter.   Inner-Iter.     Column Row Layer    Maximum-Head-Change  Column Row Layer    Maximum-Flux-Residual          L2-NORM 
          0                 1           2             4    7     1       0.7656142699E-01       4    7    1         0.4018593890E+01      0.9034948022E+01
          0                 2           2             4    7     1      -0.7447402906E-02       4    7    1        -0.4018637368E+00      0.9034950446E+00
          0                 3           2             4    7     1       0.5071399050E-03       4    7    1         0.2813043258E-01      0.6324466980E-01
          0                 4           1             4    7     1      -0.2017957420E-04       4    7    1        -0.1150536487E-02      0.2586709436E-02

    ------------------------------------------------
       NWT REQUIRED            4 OUTER ITERATIONS 
       AND A TOTAL OF          7 INNER ITERATIONS.
    ------------------------------------------------

 NO OUTPUT CONTROL FOR STRESS PERIOD   47   TIME STEP    1
 
 SOLVING FOR HEAD 
                                                   Max.-Head-Change                         Max.-Flux-Residual
  Residual-Control   Outer-Iter.   Inner-Iter.     Column Row Layer    Maximum-Head-Change  Column Row Layer    Maximum-Flux-Residual          L2-NORM 
          0                 1           2             4    7     1       0.7576546543E-01       4    7    1         0.3977879213E+01      0.8859139427E+01
          0                 2           2             4    7     1      -0.7369979649E-02       4    7    1        -0.3977924082E+00      0.8859145546E+00
          0                 3           2             4    7     1       0.5018676475E-03       4    7    1         0.2784543815E-01      0.6201402875E-01
          0                 4           1             4    7     1      -0.1996978580E-04       4    7    1        -0.1138880190E-02      0.2536374988E-02

    ------------------------------------------------
       NWT REQUIRED            4 OUTER ITERATIONS 
       AND A TOTAL OF          7 INNER ITERATIONS.
    ------------------------------------------------

 NO OUTPUT CONTROL FOR STRESS PERIOD   47   TIME STEP    2
 
 SOLVING FOR HEAD 
                                                   Max.-Head-Change                         Max.-Flux-Residual
  Residual-Control   Outer-Iter.   Inner-Iter.     Column Row Layer    Maximum-Head-Change  Column Row Layer    Maximum-Flux-Residual          L2-NORM 
          0                 1           2             4    7     1       0.7495908658E-01       4    7    1         0.3936531032E+01      0.8690014690E+01
          0                 2           2             4    7     1      -0.7291542712E-02       4    7    1        -0.3936577052E+00      0.8690023965E+00
          0                 3           2             4    7     1       0.4965263662E-03       4    7    1         0.2755600773E-01      0.6083017546E-01
          0                 4           1             4    7     1      -0.1975725174E-04       4    7    1        -0.1127042490E-02      0.2487956630E-02

    ------------------------------------------------
       NWT REQUIRED            4 OUTER ITERATIONS 
       AND A TOTAL OF          7 INNER ITERATIONS.
    ------------------------------------------------

 NO OUTPUT CONTROL FOR STRESS PERIOD   47   TIME STEP    3
 
 SOLVING FOR HEAD 
                                                   Max.-Head-Change                         Max.-Flux-Residual
  Residual-Control   Outer-Iter.   Inner-Iter.     Column Row Layer    Maximum-Head-Change  Column Row Layer    Maximum-Flux-Residual          L2-NORM 
          0                 1           2             4    7     1       0.7414372171E-01       4    7    1         0.3894628263E+01      0.8527177422E+01
          0                 2           2             4    7     1      -0.7212231354E-02       4    7    1        -0.3894675216E+00      0.8527189420E+00
          0                 3           2             4    7     1       0.4911255426E-03       4    7    1         0.2726269385E-01      0.5969032615E-01
          0                 4           1             4    7     1      -0.1954234788E-04       4    7    1        -0.1115045931E-02      0.2441334454E-02

    ------------------------------------------------
       NWT REQUIRED            4 OUTER ITERATIONS 
       AND A TOTAL OF          7 INNER ITERATIONS.
    ------------------------------------------------

 NO OUTPUT CONTROL FOR STRESS PERIOD   47   TIME STEP    4
 
 SOLVING FOR HEAD 
                                                   Max.-Head-Change                         Max.-Flux-Residual
  Residual-Control   Outer-Iter.   Inner-Iter.     Column Row Layer    Maximum-Head-Change  Column Row Layer    Maximum-Flux-Residual          L2-NORM 
          0                 1           2             4    7     1       0.7332109971E-01       4    7    1         0.3852266767E+01      0.8370251425E+01
          0                 2           2             4    7     1      -0.7132213778E-02       4    7    1        -0.3852314455E+00      0.8370265833E+00
          0                 3           2             4    7     1       0.4856766315E-03       4    7    1         0.2696616770E-01      0.5859186163E-01
          0                 4           1             4    7     1      -0.1932553060E-04       4    7    1        -0.1102918005E-02      0.2396410332E-02

    ------------------------------------------------
       NWT REQUIRED            4 OUTER ITERATIONS 
       AND A TOTAL OF          7 INNER ITERATIONS.
    ------------------------------------------------

 NO OUTPUT CONTROL FOR STRESS PERIOD   47   TIME STEP    5
 
 SOLVING FOR HEAD 
                                                   Max.-Head-Change                         Max.-Flux-Residual
  Residual-Control   Outer-Iter.   Inner-Iter.     Column Row Layer    Maximum-Head-Change  Column Row Layer    Maximum-Flux-Residual          L2-NORM 
          0                 1           2             4    7     1       0.7249270715E-01       4    7    1         0.3809528967E+01      0.8218888946E+01
          0                 2           2             4    7     1      -0.7051634616E-02       4    7    1        -0.3809577210E+00      0.8218905354E+00
          0                 3           2             4    7     1       0.4801894811E-03       4    7    1         0.2666700635E-01      0.5753233300E-01
          0                 4           1             4    7     1      -0.1910719157E-04       4    7    1        -0.1090682279E-02      0.2353075406E-02

    ------------------------------------------------
       NWT REQUIRED            4 OUTER ITERATIONS 
       AND A TOTAL OF          7 INNER ITERATIONS.
    ------------------------------------------------

 NO OUTPUT CONTROL FOR STRESS PERIOD   47   TIME STEP    6
 
 SOLVING FOR HEAD 
                                                   Max.-Head-Change                         Max.-Flux-Residual
  Residual-Control   Outer-Iter.   Inner-Iter.     Column Row Layer    Maximum-Head-Change  Column Row Layer    Maximum-Flux-Residual          L2-NORM 
          0                 1           2             4    7     1       0.7165992732E-01       4    7    1         0.3766491940E+01      0.8072773928E+01
          0                 2           2             4    7     1      -0.6970628449E-02       4    7    1        -0.3766540576E+00      0.8072792033E+00
          0                 3           2             4    7     1       0.4746732552E-03       4    7    1         0.2636574938E-01      0.5650953698E-01
          0                 4           1             4    7     1      -0.1888769608E-04       4    7    1        -0.1078360862E-02      0.2311240893E-02

    ------------------------------------------------
       NWT REQUIRED            4 OUTER ITERATIONS 
       AND A TOTAL OF          7 INNER ITERATIONS.
    ------------------------------------------------

 NO OUTPUT CONTROL FOR STRESS PERIOD   47   TIME STEP    7
 
 SOLVING FOR HEAD 
                                                   Max.-Head-Change                         Max.-Flux-Residual
  Residual-Control   Outer-Iter.   Inner-Iter.     Column Row Layer    Maximum-Head-Change  Column Row Layer    Maximum-Flux-Residual          L2-NORM 
          0                 1           2             4    7     1       0.7082405191E-01       4    7    1         0.3723227407E+01      0.7931615944E+01
          0                 2           2             4    7     1      -0.6889320949E-02       4    7    1        -0.3723276291E+00      0.7931635545E+00
          0                 3           2             4    7     1       0.4691365123E-03       4    7    1         0.2606289903E-01      0.5552144296E-01
          0                 4           1             4    7     1      -0.1866738387E-04       4    7    1        -0.1065974264E-02      0.2270834660E-02

    ------------------------------------------------
       NWT REQUIRED            4 OUTER ITERATIONS 
       AND A TOTAL OF          7 INNER ITERATIONS.
    ------------------------------------------------

 NO OUTPUT CONTROL FOR STRESS PERIOD   47   TIME STEP    8
 
 SOLVING FOR HEAD 
                                                   Max.-Head-Change                         Max.-Flux-Residual
  Residual-Control   Outer-Iter.   Inner-Iter.     Column Row Layer    Maximum-Head-Change  Column Row Layer    Maximum-Flux-Residual          L2-NORM 
          0                 1           2             4    7     1       0.6998601496E-01       4    7    1         0.3679787893E+01      0.7795135741E+01
          0                 2           2             4    7     1      -0.6807802991E-02       4    7    1        -0.3679836890E+00      0.7795156559E+00
          0                 3           2             4    7     1       0.4635854400E-03       4    7    1         0.2575882300E-01      0.5456608024E-01
          0                 4           1             4    7     1      -0.1844650144E-04       4    7    1        -0.1053537540E-02      0.2231749904E-02

    ------------------------------------------------
       NWT REQUIRED            4 OUTER ITERATIONS 
       AND A TOTAL OF          7 INNER ITERATIONS.
    ------------------------------------------------

 NO OUTPUT CONTROL FOR STRESS PERIOD   47   TIME STEP    9
 
 SOLVING FOR HEAD 
                                                   Max.-Head-Change                         Max.-Flux-Residual
  Residual-Control   Outer-Iter.   Inner-Iter.     Column Row Layer    Maximum-Head-Change  Column Row Layer    Maximum-Flux-Residual          L2-NORM 
          0                 1           2             4    7     1       0.6914733961E-01       4    7    1         0.3636257946E+01      0.7663090131E+01
          0                 2           2             4    7     1      -0.6726222758E-02       4    7    1        -0.3636306939E+00      0.7663111918E+00
          0                 3           2             4    7     1       0.4580301285E-03       4    7    1         0.2545411322E-01      0.5364182260E-01
          0                 4           1             4    7     1      -0.1822545058E-04       4    7    1        -0.1041074890E-02      0.2194096895E-02

    ------------------------------------------------
       NWT REQUIRED            4 OUTER ITERATIONS 
       AND A TOTAL OF          7 INNER ITERATIONS.
    ------------------------------------------------

 NO OUTPUT CONTROL FOR STRESS PERIOD   47   TIME STEP   10
 
 SOLVING FOR HEAD 
                                                   Max.-Head-Change                         Max.-Flux-Residual
  Residual-Control   Outer-Iter.   Inner-Iter.     Column Row Layer    Maximum-Head-Change  Column Row Layer    Maximum-Flux-Residual          L2-NORM 
          0                 1           2             4    7     1       0.6830878116E-01       4    7    1         0.3592680416E+01      0.7535239488E+01
          0                 2           2             4    7     1      -0.6644653738E-02       4    7    1        -0.3592729299E+00      0.7535262122E+00
          0                 3           2             4    7     1       0.4524755818E-03       4    7    1         0.2514906969E-01      0.5274682279E-01
          0                 4           1             4    7     1      -0.1800442988E-04       4    7    1        -0.1028598583E-02      0.2157348008E-02

    ------------------------------------------------
       NWT REQUIRED            4 OUTER ITERATIONS 
       AND A TOTAL OF          7 INNER ITERATIONS.
    ------------------------------------------------

 NO OUTPUT CONTROL FOR STRESS PERIOD   47   TIME STEP   11
 
 SOLVING FOR HEAD 
                                                   Max.-Head-Change                         Max.-Flux-Residual
  Residual-Control   Outer-Iter.   Inner-Iter.     Column Row Layer    Maximum-Head-Change  Column Row Layer    Maximum-Flux-Residual          L2-NORM 
          0                 1           2             4    7     1       0.6747130066E-01       4    7    1         0.3549108914E+01      0.7411374883E+01
          0                 2           2             4    7     1      -0.6563189431E-02       4    7    1        -0.3549157591E+00      0.7411398152E+00
          0                 3           2             4    7     1       0.4469281675E-03       4    7    1         0.2484406781E-01      0.5187977704E-01
          0                 4           1             4    7     1      -0.1778369308E-04       4    7    1        -0.1016124000E-02      0.2121887229E-02

    ------------------------------------------------
       NWT REQUIRED            4 OUTER ITERATIONS 
       AND A TOTAL OF          7 INNER ITERATIONS.
    ------------------------------------------------

 NO OUTPUT CONTROL FOR STRESS PERIOD   47   TIME STEP   12
 
 SOLVING FOR HEAD 
                                                   Max.-Head-Change                         Max.-Flux-Residual
  Residual-Control   Outer-Iter.   Inner-Iter.     Column Row Layer    Maximum-Head-Change  Column Row Layer    Maximum-Flux-Residual          L2-NORM 
          0                 1           2             4    7     1       0.6663591421E-01       4    7    1         0.3505600498E+01      0.7291294913E+01
          0                 2           2             4    7     1      -0.6481928692E-02       4    7    1        -0.3505648885E+00      0.7291318616E+00
          0                 3           2             4    7     1       0.4413946166E-03       4    7    1         0.2453950702E-01      0.5103921135E-01
          0                 4           1             4    7     1      -0.1756350774E-04       4    7    1        -0.1003667438E-02      0.2087506714E-02

    ------------------------------------------------
       NWT REQUIRED            4 OUTER ITERATIONS 
       AND A TOTAL OF          7 INNER ITERATIONS.
    ------------------------------------------------

 NO OUTPUT CONTROL FOR STRESS PERIOD   47   TIME STEP   13
 
 SOLVING FOR HEAD 
                                                   Max.-Head-Change                         Max.-Flux-Residual
  Residual-Control   Outer-Iter.   Inner-Iter.     Column Row Layer    Maximum-Head-Change  Column Row Layer    Maximum-Flux-Residual          L2-NORM 
          0                 1           2             4    7     1       0.6580342741E-01       4    7    1         0.3462200624E+01      0.7174808266E+01
          0                 2           2             4    7     1      -0.6400949899E-02       4    7    1        -0.3462248647E+00      0.7174832298E+00
          0                 3           2             4    7     1       0.4358802660E-03       4    7    1         0.2423570555E-01      0.5022380618E-01
          0                 4           1             4    7     1      -0.1734408663E-04       4    7    1        -0.9912419382E-03      0.2054156069E-02

    ------------------------------------------------
       NWT REQUIRED            4 OUTER ITERATIONS 
       AND A TOTAL OF          7 INNER ITERATIONS.
    ------------------------------------------------

 NO OUTPUT CONTROL FOR STRESS PERIOD   47   TIME STEP   14
 
 SOLVING FOR HEAD 
                                                   Max.-Head-Change                         Max.-Flux-Residual
  Residual-Control   Outer-Iter.   Inner-Iter.     Column Row Layer    Maximum-Head-Change  Column Row Layer    Maximum-Flux-Residual          L2-NORM 
          0                 1           2             4    7     1       0.6497444829E-01       4    7    1         0.3418943832E+01      0.7061750340E+01
          0                 2           2             4    7     1      -0.6320312208E-02       4    7    1        -0.3418991424E+00      0.7061774662E+00
          0                 3           2             4    7     1       0.4303891443E-03       4    7    1         0.2393290527E-01      0.4943240447E-01
          0                 4           1             4    7     1      -0.1712558987E-04       4    7    1        -0.9788573850E-03      0.2021786628E-02

    ------------------------------------------------
       NWT REQUIRED            4 OUTER ITERATIONS 
       AND A TOTAL OF          7 INNER ITERATIONS.
    ------------------------------------------------

 NO OUTPUT CONTROL FOR STRESS PERIOD   47   TIME STEP   15
 
 SOLVING FOR HEAD 
                                                   Max.-Head-Change                         Max.-Flux-Residual
  Residual-Control   Outer-Iter.   Inner-Iter.     Column Row Layer    Maximum-Head-Change  Column Row Layer    Maximum-Flux-Residual          L2-NORM 
          0                 1           2             4    7     1       0.6414966430E-01       4    7    1         0.3375868876E+01      0.6951948405E+01
          0                 2           2             4    7     1      -0.6240082502E-02       4    7    1        -0.3375915978E+00      0.6951972925E+00
          0                 3           2             4    7     1       0.4249258060E-03       4    7    1         0.2363137749E-01      0.4866379748E-01
          0                 4           1             4    7     1      -0.1690819856E-04       4    7    1        -0.9665248967E-03      0.1990349478E-02

    ------------------------------------------------
       NWT REQUIRED            4 OUTER ITERATIONS 
       AND A TOTAL OF          7 INNER ITERATIONS.
    ------------------------------------------------

 NO OUTPUT CONTROL FOR STRESS PERIOD   47   TIME STEP   16
 
 SOLVING FOR HEAD 
                                                   Max.-Head-Change                         Max.-Flux-Residual
  Residual-Control   Outer-Iter.   Inner-Iter.     Column Row Layer    Maximum-Head-Change  Column Row Layer    Maximum-Flux-Residual          L2-NORM 
          0                 1           2             4    7     1       0.6332996792E-01       4    7    1         0.3333025865E+01      0.6845270621E+01
          0                 2           2             4    7     1      -0.6160347606E-02       4    7    1        -0.3333072427E+00      0.6845295101E+00
          0                 3           2             4    7     1       0.4194961629E-03       4    7    1         0.2333147301E-01      0.4791703793E-01
          0                 4           1             4    7     1      -0.1669214838E-04       4    7    1        -0.9542587904E-03      0.1959807828E-02

    ------------------------------------------------
       NWT REQUIRED            4 OUTER ITERATIONS 
       AND A TOTAL OF          7 INNER ITERATIONS.
    ------------------------------------------------

 NO OUTPUT CONTROL FOR STRESS PERIOD   47   TIME STEP   17
 
 SOLVING FOR HEAD 
                                                   Max.-Head-Change                         Max.-Flux-Residual
  Residual-Control   Outer-Iter.   Inner-Iter.     Column Row Layer    Maximum-Head-Change  Column Row Layer    Maximum-Flux-Residual          L2-NORM 
          0                 1           2             4    7     1       0.6251565105E-01       4    7    1         0.3290432146E+01      0.6741562157E+01
          0                 2           2             4    7     1      -0.6081135924E-02       4    7    1        -0.3290478123E+00      0.6741586551E+00
          0                 3           2             4    7     1       0.4141021494E-03       4    7    1         0.2303331331E-01      0.4719107860E-01
          0                 4           1             4    7     1      -0.1647751519E-04       4    7    1        -0.9420640354E-03      0.1930117225E-02

    ------------------------------------------------
       NWT REQUIRED            4 OUTER ITERATIONS 
       AND A TOTAL OF          7 INNER ITERATIONS.
    ------------------------------------------------

 NO OUTPUT CONTROL FOR STRESS PERIOD   47   TIME STEP   18
 
 SOLVING FOR HEAD 
                                                   Max.-Head-Change                         Max.-Flux-Residual
  Residual-Control   Outer-Iter.   Inner-Iter.     Column Row Layer    Maximum-Head-Change  Column Row Layer    Maximum-Flux-Residual          L2-NORM 
          0                 1           2             4    7     1       0.6170736702E-01       4    7    1         0.3248124551E+01      0.6640696269E+01
          0                 2           2             4    7     1      -0.6002511015E-02       4    7    1        -0.3248169904E+00      0.6640720603E+00
          0                 3           2             4    7     1       0.4087480934E-03       4    7    1         0.2273715623E-01      0.4648502194E-01
          0                 4           1             4    7     1      -0.1626447237E-04       4    7    1        -0.9299511892E-03      0.1901238374E-02

    ------------------------------------------------
       NWT REQUIRED            4 OUTER ITERATIONS 
       AND A TOTAL OF          7 INNER ITERATIONS.
    ------------------------------------------------

 NO OUTPUT CONTROL FOR STRESS PERIOD   47   TIME STEP   19
 
 SOLVING FOR HEAD 
                                                   Max.-Head-Change                         Max.-Flux-Residual
  Residual-Control   Outer-Iter.   Inner-Iter.     Column Row Layer    Maximum-Head-Change  Column Row Layer    Maximum-Flux-Residual          L2-NORM 
          0                 1           2             4    7     1       0.6090557850E-01       4    7    1         0.3206129721E+01      0.6542542170E+01
          0                 2           2             4    7     1      -0.5924517893E-02       4    7    1        -0.3206174419E+00      0.6542566351E+00
          0                 3           2             4    7     1       0.4034370603E-03       4    7    1         0.2244318833E-01      0.4579794413E-01
          0                 4           1             4    7     1      -0.1605314104E-04       4    7    1        -0.9179278738E-03      0.1873137556E-02

    ------------------------------------------------
       NWT REQUIRED            4 OUTER ITERATIONS 
       AND A TOTAL OF          7 INNER ITERATIONS.
    ------------------------------------------------

 NO OUTPUT CONTROL FOR STRESS PERIOD   47   TIME STEP   20
 
 SOLVING FOR HEAD 
                                                   Max.-Head-Change                         Max.-Flux-Residual
  Residual-Control   Outer-Iter.   Inner-Iter.     Column Row Layer    Maximum-Head-Change  Column Row Layer    Maximum-Flux-Residual          L2-NORM 
          0                 1           2             4    7     1       0.6011083932E-01       4    7    1         0.3164478883E+01      0.6447000955E+01
          0                 2           2             4    7     1      -0.5863807773E-02       4    7    1        -0.3175007605E+00      0.6448024172E+00
          0                 3           2             4    7     1       0.3993028876E-03       4    7    1         0.2222501787E-01      0.4513614211E-01
          0                 4           1             4    7     1      -0.1588863855E-04       4    7    1        -0.9090046974E-03      0.1846069618E-02

    ------------------------------------------------
       NWT REQUIRED            4 OUTER ITERATIONS 
       AND A TOTAL OF          7 INNER ITERATIONS.
    ------------------------------------------------

 NO OUTPUT CONTROL FOR STRESS PERIOD   47   TIME STEP   21
 
 SOLVING FOR HEAD 
                                                   Max.-Head-Change                         Max.-Flux-Residual
  Residual-Control   Outer-Iter.   Inner-Iter.     Column Row Layer    Maximum-Head-Change  Column Row Layer    Maximum-Flux-Residual          L2-NORM 
          0                 1           2             4    7     1       0.5928827066E-01       4    7    1         0.3122294359E+01      0.6353858533E+01
          0                 2           2             4    7     1      -0.5767227996E-02       4    7    1        -0.3122340157E+00      0.6354017189E+00
          0                 3           2             4    7     1       0.3927261873E-03       4    7    1         0.2185634724E-01      0.4447809254E-01
          0                 4           1             4    7     1      -0.1562694546E-04       4    7    1        -0.8939260488E-03      0.1819153378E-02

    ------------------------------------------------
       NWT REQUIRED            4 OUTER ITERATIONS 
       AND A TOTAL OF          7 INNER ITERATIONS.
    ------------------------------------------------

 NO OUTPUT CONTROL FOR STRESS PERIOD   47   TIME STEP   22
 
 SOLVING FOR HEAD 
                                                   Max.-Head-Change                         Max.-Flux-Residual
  Residual-Control   Outer-Iter.   Inner-Iter.     Column Row Layer    Maximum-Head-Change  Column Row Layer    Maximum-Flux-Residual          L2-NORM 
          0                 1           2             4    7     1       0.5849140737E-01       4    7    1         0.3080441759E+01      0.6263089841E+01
          0                 2           2             4    7     1      -0.5689685179E-02       4    7    1        -0.3080486734E+00      0.6263113644E+00
          0                 3           2             4    7     1       0.3874458200E-03       4    7    1         0.2156337389E-01      0.4384177362E-01
          0                 4           1             4    7     1      -0.1541683459E-04       4    7    1        -0.8819434142E-03      0.1793130689E-02

    ------------------------------------------------
       NWT REQUIRED            4 OUTER ITERATIONS 
       AND A TOTAL OF          7 INNER ITERATIONS.
    ------------------------------------------------

 NO OUTPUT CONTROL FOR STRESS PERIOD   47   TIME STEP   23
 
 SOLVING FOR HEAD 
                                                   Max.-Head-Change                         Max.-Flux-Residual
  Residual-Control   Outer-Iter.   Inner-Iter.     Column Row Layer    Maximum-Head-Change  Column Row Layer    Maximum-Flux-Residual          L2-NORM 
          0                 1           2             4    7     1       0.5770352720E-01       4    7    1         0.3039040486E+01      0.6174590237E+01
          0                 2           2             4    7     1      -0.5613044696E-02       4    7    1        -0.3039084624E+00      0.6174613701E+00
          0                 3           2             4    7     1       0.3822268995E-03       4    7    1         0.2127355980E-01      0.4322227093E-01
          0                 4           1             4    7     1      -0.1520916904E-04       4    7    1        -0.8700900064E-03      0.1767795930E-02

    ------------------------------------------------
       NWT REQUIRED            4 OUTER ITERATIONS 
       AND A TOTAL OF          7 INNER ITERATIONS.
    ------------------------------------------------

 NO OUTPUT CONTROL FOR STRESS PERIOD   47   TIME STEP   24
 
 SOLVING FOR HEAD 
                                                   Max.-Head-Change                         Max.-Flux-Residual
  Residual-Control   Outer-Iter.   Inner-Iter.     Column Row Layer    Maximum-Head-Change  Column Row Layer    Maximum-Flux-Residual          L2-NORM 
          0                 1           2             4    7     1       0.5692481791E-01       4    7    1         0.2998103429E+01      0.6088301361E+01
          0                 2           2             4    7     1      -0.5537296274E-02       4    7    1        -0.2998146719E+00      0.6088324377E+00
          0                 3           2             4    7     1       0.3770687249E-03       4    7    1         0.2098699514E-01      0.4261824750E-01
          0                 4           1             4    7     1      -0.1500392047E-04       4    7    1        -0.8583694889E-03      0.1743090855E-02

    ------------------------------------------------
       NWT REQUIRED            4 OUTER ITERATIONS 
       AND A TOTAL OF          7 INNER ITERATIONS.
    ------------------------------------------------

 NO OUTPUT CONTROL FOR STRESS PERIOD   47   TIME STEP   25
 
 SOLVING FOR HEAD 
                                                   Max.-Head-Change                         Max.-Flux-Residual
  Residual-Control   Outer-Iter.   Inner-Iter.     Column Row Layer    Maximum-Head-Change  Column Row Layer    Maximum-Flux-Residual          L2-NORM 
          0                 1           2             4    7     1       0.5615559855E-01       4    7    1         0.2957649085E+01      0.6004139650E+01
          0                 2           2             4    7     1      -0.5462470954E-02       4    7    1        -0.2957691522E+00      0.6004162220E+00
          0                 3           2             4    7     1       0.3719734099E-03       4    7    1         0.2070380944E-01      0.4202910292E-01
          0                 4           1             4    7     1      -0.1480117283E-04       4    7    1        -0.8467871589E-03      0.1718990744E-02

    ------------------------------------------------
       NWT REQUIRED            4 OUTER ITERATIONS 
       AND A TOTAL OF          7 INNER ITERATIONS.
    ------------------------------------------------

 NO OUTPUT CONTROL FOR STRESS PERIOD   47   TIME STEP   26
 
 SOLVING FOR HEAD 
                                                   Max.-Head-Change                         Max.-Flux-Residual
  Residual-Control   Outer-Iter.   Inner-Iter.     Column Row Layer    Maximum-Head-Change  Column Row Layer    Maximum-Flux-Residual          L2-NORM 
          0                 1           2             4    7     1       0.5539601789E-01       4    7    1         0.2917686757E+01      0.5922023508E+01
          0                 2           2             4    7     1      -0.5388583210E-02       4    7    1        -0.2917728337E+00      0.5922045644E+00
          0                 3           2             4    7     1       0.3669419410E-03       4    7    1         0.2042406783E-01      0.4145429345E-01
          0                 4           1             4    7     1      -0.1460096627E-04       4    7    1        -0.8353457217E-03      0.1695482493E-02

    ------------------------------------------------
       NWT REQUIRED            4 OUTER ITERATIONS 
       AND A TOTAL OF          7 INNER ITERATIONS.
    ------------------------------------------------

 NO OUTPUT CONTROL FOR STRESS PERIOD   47   TIME STEP   27
 
 SOLVING FOR HEAD 
                                                   Max.-Head-Change                         Max.-Flux-Residual
  Residual-Control   Outer-Iter.   Inner-Iter.     Column Row Layer    Maximum-Head-Change  Column Row Layer    Maximum-Flux-Residual          L2-NORM 
          0                 1           2             4    7     1       0.5464606912E-01       4    7    1         0.2878216917E+01      0.5841874483E+01
          0                 2           2             4    7     1      -0.5315632385E-02       4    7    1        -0.2878257638E+00      0.5841896172E+00
          0                 3           2             4    7     1       0.3619742727E-03       4    7    1         0.2014777364E-01      0.4089324574E-01
          0                 4           1             4    7     1      -0.1440329783E-04       4    7    1        -0.8240452689E-03      0.1672535331E-02

    ------------------------------------------------
       NWT REQUIRED            4 OUTER ITERATIONS 
       AND A TOTAL OF          7 INNER ITERATIONS.
    ------------------------------------------------

 NO OUTPUT CONTROL FOR STRESS PERIOD   47   TIME STEP   28
 
 SOLVING FOR HEAD 
                                                   Max.-Head-Change                         Max.-Flux-Residual
  Residual-Control   Outer-Iter.   Inner-Iter.     Column Row Layer    Maximum-Head-Change  Column Row Layer    Maximum-Flux-Residual          L2-NORM 
          0                 1           2             4    7     1       0.5390598763E-01       4    7    1         0.2839253698E+01      0.5763620783E+01
          0                 2           2             4    7     1      -0.5243641378E-02       4    7    1        -0.2839293560E+00      0.5763641984E+00
          0                 3           2             4    7     1       0.3570719642E-03       4    7    1         0.1987502578E-01      0.4034546481E-01
          0                 4           1             4    7     1      -0.1420823046E-04       4    7    1        -0.8128898689E-03      0.1650132416E-02

    ------------------------------------------------
       NWT REQUIRED            4 OUTER ITERATIONS 
       AND A TOTAL OF          7 INNER ITERATIONS.
    ------------------------------------------------

 NO OUTPUT CONTROL FOR STRESS PERIOD   47   TIME STEP   29
 
 SOLVING FOR HEAD 
                                                   Max.-Head-Change                         Max.-Flux-Residual
  Residual-Control   Outer-Iter.   Inner-Iter.     Column Row Layer    Maximum-Head-Change  Column Row Layer    Maximum-Flux-Residual          L2-NORM 
          0                 1           2             4    7     1       0.5317585532E-01       4    7    1         0.2800802061E+01      0.5687204029E+01
          0                 2           2             4    7     1      -0.5172618159E-02       4    7    1        -0.2800841068E+00      0.5687224662E+00
          0                 3           2             4    7     1       0.3522355588E-03       4    7    1         0.1960585904E-01      0.3981053563E-01
          0                 4           1             4    7     1      -0.1401578500E-04       4    7    1        -0.8018809251E-03      0.1628249886E-02

    ------------------------------------------------
       NWT REQUIRED            4 OUTER ITERATIONS 
       AND A TOTAL OF          7 INNER ITERATIONS.
    ------------------------------------------------

 NO OUTPUT CONTROL FOR STRESS PERIOD   47   TIME STEP   30



 STREAM LISTING     PERIOD     47   STEP       30

 LAYER ROW COL. STREAM  RCH.  FLOW INTO     FLOW TO   FLOW OUT OF   OVRLND.     DIRECT     STREAM       STREAM     STREAM     STREAM   STREAMBED  STREAMBED
                SEG.NO.  NO.  STRM. RCH.    AQUIFER    STRM. RCH.    RUNOFF     PRECIP       ET          HEAD       DEPTH      WIDTH   CONDCTNC.   GRADIENT

   1    1    1     1     1    1.9000E+01  2.1427E-01   1.8786E+01  0.000E+00  0.000E+00  0.000E+00  1.09413E+03  1.082E+00  1.166E+01  5.249E-02  1.361E+00
   1    2    2     1     2    1.8786E+01  3.3054E-01   1.8455E+01  0.000E+00  0.000E+00  0.000E+00  1.08914E+03  1.077E+00  1.158E+01  8.107E-02  1.359E+00
   1    3    3     1     3    1.8455E+01  2.8064E-01   1.8175E+01  0.000E+00  0.000E+00  0.000E+00  1.08349E+03  1.072E+00  1.149E+01  6.892E-02  1.357E+00
   1    3    4     1     4    1.8175E+01  2.5740E-01   1.7917E+01  0.000E+00  0.000E+00  0.000E+00  1.07848E+03  1.068E+00  1.140E+01  6.328E-02  1.356E+00
   1    4    5     2     1    1.5917E+01  3.0542E-01   1.5612E+01  0.000E+00  0.000E+00  0.000E+00  1.07285E+03  9.157E-01  1.200E+01  7.800E-02  1.305E+00
   1    5    6     2     2    1.5612E+01  2.3438E-01   1.5377E+01  0.000E+00  0.000E+00  0.000E+00  1.06742E+03  9.063E-01  1.200E+01  6.000E-02  1.302E+00
   1    6    6     2     3    1.5377E+01  2.3388E-01   1.5143E+01  0.000E+00  0.000E+00  0.000E+00  1.06269E+03  8.980E-01  1.200E+01  6.000E-02  1.299E+00
   1    7    6     2     4    1.5143E+01  2.3338E-01   1.4910E+01  0.000E+00  0.000E+00  0.000E+00  1.05797E+03  8.897E-01  1.200E+01  6.000E-02  1.297E+00
   1    8    6     2     5    1.4910E+01  2.3289E-01   1.4677E+01  0.000E+00  0.000E+00  0.000E+00  1.05324E+03  8.814E-01  1.200E+01  6.000E-02  1.294E+00
   1    3    5     3     1    2.0000E+00  2.8252E-01   1.7175E+00  0.000E+00  0.000E+00  0.000E+00  1.07555E+03  1.909E+00  9.636E+00  7.227E-02  1.955E+00
   1    3    6     3     2    1.7175E+00  2.4905E-01   1.4684E+00  0.000E+00  0.000E+00  0.000E+00  1.07264E+03  1.727E+00  8.909E+00  6.682E-02  1.864E+00
   1    3    7     3     3    1.4684E+00  1.9718E-01   1.2712E+00  0.000E+00  0.000E+00  0.000E+00  1.06987E+03  1.555E+00  8.218E+00  5.547E-02  1.777E+00
   1    4    8     3     4    1.2712E+00  2.2567E-01   1.0456E+00  0.000E+00  0.000E+00  0.000E+00  1.06682E+03  1.364E+00  7.455E+00  6.709E-02  1.682E+00
   1    5    8     3     5    1.0456E+00  1.5790E-01   8.8768E-01  0.000E+00  0.000E+00  0.000E+00  1.06362E+03  1.164E+00  6.655E+00  4.991E-02  1.582E+00
   1    6    8     3     6    8.8768E-01  5.5980E-02   8.3170E-01  0.000E+00  0.000E+00  0.000E+00  1.06158E+03  1.036E+00  6.145E+00  1.844E-02  1.518E+00
   1    5   10     4     1    1.0000E+01  9.0919E-02   9.9091E+00  0.000E+00  0.000E+00  0.000E+00  1.07836E+03  6.368E-01  1.000E+01  2.500E-02  1.212E+00
   1    5    9     4     2    9.9091E+00  1.8158E-01   9.7275E+00  0.000E+00  0.000E+00  0.000E+00  1.07154E+03  6.315E-01  1.000E+01  5.000E-02  1.211E+00
   1    6    8     4     3    9.7275E+00  1.2689E-01   9.6006E+00  0.000E+00  0.000E+00  0.000E+00  1.06381E+03  6.256E-01  1.000E+01  3.500E-02  1.209E+00
   1    6    8     5     1    1.0432E+01  2.2686E-01   1.0205E+01  0.000E+00  0.000E+00  0.000E+00  1.05868E+03  6.790E-01  1.542E+01  6.166E-02  1.226E+00
   1    7    7     5     2    1.0205E+01  2.7894E-01   9.9265E+00  0.000E+00  0.000E+00  0.000E+00  1.05417E+03  6.732E-01  1.519E+01  7.594E-02  1.224E+00
   1    8    7     5     3    9.9265E+00  1.9221E-01   9.7343E+00  0.000E+00  0.000E+00  0.000E+00  1.04992E+03  6.676E-01  1.497E+01  5.241E-02  1.223E+00
   1    8    6     5     4    9.7343E+00  1.3577E-01   9.5985E+00  0.000E+00  0.000E+00  0.000E+00  1.04691E+03  6.637E-01  1.482E+01  3.706E-02  1.221E+00
   1    9    6     6     1    2.4276E+01  2.5176E-01   2.4024E+01  0.000E+00  0.000E+00  0.000E+00  1.04392E+03  1.196E+00  1.200E+01  6.000E-02  1.399E+00
   1   10    7     6     2    2.4024E+01  2.5131E-01   2.3773E+01  0.000E+00  0.000E+00  0.000E+00  1.03937E+03  1.188E+00  1.200E+01  6.000E-02  1.396E+00
   1   11    7     6     3    2.3773E+01  2.5086E-01   2.3522E+01  0.000E+00  0.000E+00  0.000E+00  1.03482E+03  1.181E+00  1.200E+01  6.000E-02  1.394E+00
   1   12    7     6     4    2.3522E+01  2.5041E-01   2.3271E+01  0.000E+00  0.000E+00  0.000E+00  1.03026E+03  1.173E+00  1.200E+01  6.000E-02  1.391E+00
   1   13    7     6     5    2.3271E+01  1.2159E-02   2.3259E+01  0.000E+00  0.000E+00  0.000E+00  1.02708E+03  1.169E+00  1.200E+01  2.400E-02  1.689E-01
   1   14    9     7     1    1.5000E+02  1.3797E+00   1.4862E+02  0.000E+00  0.000E+00  0.000E+00  1.03987E+03  2.288E+00  5.529E+01  5.593E-01  8.223E-01
   1   13    8     7     2    1.4862E+02  1.9918E+00   1.4663E+02  0.000E+00  0.000E+00  0.000E+00  1.03478E+03  2.279E+00  5.525E+01  6.147E-01  1.080E+00
   1   13    7     7     3    1.4663E+02  1.7399E+00   1.4489E+02  0.000E+00  0.000E+00  0.000E+00  1.02969E+03  2.269E+00  5.521E+01  5.584E-01  1.039E+00
   1   13    6     8     1    1.6815E+02  1.1706E+00   1.6698E+02  0.000E+00  0.000E+00  0.000E+00  1.02481E+03  2.936E+00  4.258E+01  4.339E-01  8.993E-01
   1   13    5     8     2    1.6698E+02  4.0514E-01   1.6657E+02  0.000E+00  0.000E+00  0.000E+00  1.01856E+03  2.931E+00  4.250E+01  4.331E-01  3.118E-01
   1   13    4     8     3    1.6657E+02 -1.6651E+00   1.6824E+02  0.000E+00  0.000E+00  0.000E+00  1.01231E+03  2.935E+00  4.256E+01  4.337E+00 -1.280E-01
   1   13    3     8     4    1.6824E+02 -3.2746E+00   1.7151E+02  0.000E+00  0.000E+00  0.000E+00  1.00608E+03  2.951E+00  4.280E+01  4.361E+00 -2.503E-01
   1   13    2     8     5    1.7151E+02 -2.4820E+00   1.7399E+02  0.000E+00  0.000E+00  0.000E+00  9.99845E+02  2.970E+00  4.307E+01  4.389E+00 -1.885E-01
   1   13    1     8     6    1.7399E+02 -1.9569E+00   1.7595E+02  0.000E+00  0.000E+00  0.000E+00  9.94859E+02  2.984E+00  4.327E+01  2.646E+00 -2.465E-01





UNSATURATED ZONE PACKAGE VOLUMETRIC BUDGET FOR  TIME STEP    30 STRESS PERIOD   47
  ------------------------------------------------------------------------------



     CUMULATIVE VOLUMES      L**3       RATES FOR THIS TIME STEP      L**3/T
     ------------------                 ------------------------

           IN:                                      IN:
           ---                                      ---
        INFILTRATION =  1718199312.2379          INFILTRATION =           0.8475

          OUT:                                     OUT:
          ----                                     ----
              UZF ET =  1717335266.6722                UZF ET =           0.8475
        UZF RECHARGE =       73224.0000          UZF RECHARGE =       0.0000E+00

            IN - OUT =      790821.5657              IN - OUT =       0.0000E+00

          STORAGE:                                 STORAGE:
          --------                                 --------
      STORAGE CHANGE =      790807.1429        STORAGE CHANGE =       3.3198E-16

 PERCENT DISCREPANCY IS DIFFERENCE BETWEEN IN-OUT MINUS CHANGE IN STORAGE
 DIVIDED BY THE AVERAGE OF IN AND OUT TIMES 100

 PERCENT DISCREPANCY =           0.00     PERCENT DISCREPANCY =           0.00






1
  VOLUMETRIC BUDGET FOR AGRICULTURAL FIELDS AT  END OF TIME STEP   30, STRESS PERIOD  47
  ------------------------------------------------------------------------------

     CUMULATIVE VOLUMES      L**3       RATES FOR THIS TIME STEP      L**3/T
     ------------------                 ------------------------

           IN:                                      IN:
           ---                                      ---
               AG WELLS  =  1615591040.0000                 AG WELLS  =           0.0000
      DIVERSION SEGMENTS =           0.0000        DIVERSION SEGMENTS =           0.0000
       IRRIGATION PONDS  =           0.0000         IRRIGATION PONDS  =           0.0000
           GW IRRIGATION =           0.0000             GW IRRIGATION =           0.0000
           SW IRRIGATION =           0.0000             SW IRRIGATION =           0.0000
        SYSTEM LOSSES GW =           0.0000          SYSTEM LOSSES GW =           0.0000
        SYSTEM LOSSES SW =           0.0000          SYSTEM LOSSES SW =           0.0000

                TOTAL IN =  1615591040.0000                  TOTAL IN =           0.0000

          OUT:                                     OUT:
          ----                                     ----
               AG WELLS  =           0.0000                 AG WELLS  =           0.0000
      DIVERSION SEGMENTS =           0.0000        DIVERSION SEGMENTS =           0.0000
       IRRIGATION PONDS  =           0.0000         IRRIGATION PONDS  =           0.0000
           GW IRRIGATION =  1615591040.0000             GW IRRIGATION =           0.0000
           SW IRRIGATION =           0.0000             SW IRRIGATION =           0.0000
        SYSTEM LOSSES GW =           0.0000          SYSTEM LOSSES GW =           0.0000
        SYSTEM LOSSES SW =           0.0000          SYSTEM LOSSES SW =           0.0000

               TOTAL OUT =  1615591040.0000                 TOTAL OUT =           0.0000

                IN - OUT =           0.0000                  IN - OUT =           0.0000

     PERCENT DISCREPANCY =           0.00         PERCENT DISCREPANCY =           0.00



1
  VOLUMETRIC BUDGET FOR ENTIRE MODEL AT END OF TIME STEP   30, STRESS PERIOD  47
  ------------------------------------------------------------------------------

     CUMULATIVE VOLUMES      L**3       RATES FOR THIS TIME STEP      L**3/T
     ------------------                 ------------------------

           IN:                                      IN:
           ---                                      ---
             STORAGE     =  2145411968.0000               STORAGE     =          12.2410
       CONSTANT HEAD     =           0.0000         CONSTANT HEAD     =           0.0000
     HEAD DEP BOUNDS     =    34664316.0000       HEAD DEP BOUNDS     =           0.2887
      STREAM LEAKAGE     =  1484403200.0000        STREAM LEAKAGE     =          12.4279
        UZF RECHARGE     =       73223.9531          UZF RECHARGE     =           0.0000
               GW ET     =           0.0000                 GW ET     =           0.0000
     SURFACE LEAKAGE     =           0.0000       SURFACE LEAKAGE     =           0.0000
           AG WELLS      =           0.0000             AG WELLS      =           0.0000

                TOTAL IN =  3664552704.0000                  TOTAL IN =          24.9576

          OUT:                                     OUT:
          ----                                     ----
             STORAGE     =   774321280.0000               STORAGE     =          15.2903
       CONSTANT HEAD     =           0.0000         CONSTANT HEAD     =           0.0000
     HEAD DEP BOUNDS     =    35310332.0000       HEAD DEP BOUNDS     =           0.2888
      STREAM LEAKAGE     =  1221730304.0000        STREAM LEAKAGE     =           9.3786
        UZF RECHARGE     =           0.0000          UZF RECHARGE     =           0.0000
               GW ET     =    17603406.0000                 GW ET     =           0.0000
     SURFACE LEAKAGE     =           0.0000       SURFACE LEAKAGE     =           0.0000
           AG WELLS      =  1615591040.0000             AG WELLS      =           0.0000

               TOTAL OUT =  3664556544.0000                 TOTAL OUT =          24.9576

                IN - OUT =       -3840.0000                  IN - OUT =       1.5259E-05

     PERCENT DISCREPANCY =          -0.00         PERCENT DISCREPANCY =           0.00






         TIME SUMMARY AT END OF TIME STEP   30 IN STRESS PERIOD   47
                    SECONDS     MINUTES      HOURS       DAYS        YEARS
                    -----------------------------------------------------------
   TIME STEP LENGTH  87667.      1461.1      24.352      1.0147     2.77799E-03
 STRESS PERIOD TIME 2.63000E+06  43833.      730.56      30.440     8.33397E-02
         TOTAL TIME 1.21065E+08 2.01775E+06  33629.      1401.2      3.8363    
1
1
                            STRESS PERIOD NO.   48, LENGTH =   2630000.    
                            -----------------------------------------------

                              NUMBER OF TIME STEPS =    30

                               MULTIPLIER FOR DELT =     1.000

                            INITIAL TIME STEP SIZE =   87666.66    

 REUSING NON-PARAMETER GHB CELLS FROM LAST STRESS PERIOD

      2 GHB CELLS

 REUSING STREAM SEGMENT DATA FROM LAST STRESS PERIOD



            AREAL INFILTRATION RATE
 READING ON UNIT   19 WITH FORMAT: (FREE)              

            1           2           3           4           5           6           7           8           9          10
 ........................................................................................................................
   1   1.0000E-10  2.0000E-10   0.000       0.000       0.000       0.000       0.000       0.000       0.000       0.000    
   2   2.0000E-10  1.0000E-10  2.0000E-10   0.000       0.000      8.0000E-10  8.0000E-10  5.0000E-10   0.000       0.000    
   3    0.000      5.0000E-10  1.0000E-10  1.0000E-10  8.0000E-10  8.0000E-10  5.0000E-10  5.0000E-10   0.000       0.000    
   4   8.0000E-10  5.0000E-10  1.0000E-10  1.0000E-10  1.0000E-10  1.0000E-10  1.0000E-10  1.0000E-10  2.0000E-10   0.000    
   5   8.0000E-10  5.0000E-10  1.0000E-10  1.0000E-10  1.0000E-10  1.0000E-10  1.0000E-10  1.0000E-10  1.0000E-10  1.0000E-10
   6   8.0000E-10  5.0000E-10  5.0000E-10  2.0000E-10  2.0000E-10  1.0000E-10  1.0000E-10  1.0000E-10  1.0000E-10  5.0000E-10
   7   8.0000E-10  5.0000E-10  5.0000E-10  2.0000E-10  2.0000E-10  1.0000E-10  1.0000E-10  2.0000E-10  2.0000E-10   0.000    
   8    0.000      5.0000E-10  5.0000E-10  2.0000E-10  2.0000E-10  1.0000E-10  1.0000E-10  2.0000E-10  5.0000E-10   0.000    
   9    0.000      5.0000E-10  5.0000E-10  2.0000E-10  2.0000E-10  1.0000E-10  1.0000E-10  2.0000E-10  5.0000E-10   0.000    
  10    0.000      5.0000E-10  5.0000E-10  2.0000E-10  2.0000E-10  1.0000E-10  1.0000E-10  2.0000E-10  5.0000E-10  8.0000E-10
  11    0.000      1.0000E-10  1.0000E-10  1.0000E-10  1.0000E-10  1.0000E-10  1.0000E-10  2.0000E-10  5.0000E-10   0.000    
  12   1.0000E-10  1.0000E-10  1.0000E-10  1.0000E-10  1.0000E-10  1.0000E-10  1.0000E-10  1.0000E-10  2.0000E-10   0.000    
  13   1.0000E-10  1.0000E-10  2.0000E-10  2.0000E-10  2.0000E-10  2.0000E-10  2.0000E-10  1.0000E-10  1.0000E-10   0.000    
  14    0.000      2.0000E-10  5.0000E-10  5.0000E-10  5.0000E-10  5.0000E-10  5.0000E-10  2.0000E-10  1.0000E-10   0.000    
  15    0.000       0.000      8.0000E-10  8.0000E-10  8.0000E-10  8.0000E-10   0.000       0.000       0.000       0.000    

                  ET RATE =  5.000000E-10

 USING ET EXTINCTION DEPTH FROM PREVIOUS STRESS PERIOD. CURRENT PERIOD IS:      48

 USING EXTINCTION WATER CONTENT FROM PREVIOUS STRESS PERIOD. CURRENT PERIOD IS:      48

 USING AIR ENTRY PRESSURE FROM PREVIOUS STRESS PERIOD. CURRENT PERIOD IS:      48

 USING ROOT PRESSURE HEAD FROM PREVIOUS STRESS PERIOD. CURRENT PERIOD IS:      48

 USING ROOT ACTIVITY FROM PREVIOUS STRESS PERIOD. CURRENT PERIOD IS:      48

 PROCESSING AG STRESS PERIOD DATA

 READING AG STRESS PERIOD DATA

 READING IRRIGATION WELL

 NO IRRPOND OR REUSING IRRPOND DATA FROM LAST STRESS PERIOD

 END PROCESSING AG STRESS PERIOD DATA OPTIONS
 
 SOLVING FOR HEAD 
                                                   Max.-Head-Change                         Max.-Flux-Residual
  Residual-Control   Outer-Iter.   Inner-Iter.     Column Row Layer    Maximum-Head-Change  Column Row Layer    Maximum-Flux-Residual          L2-NORM 
          0                 1           2             4    7     1       0.5245572427E-01       4    7    1         0.2762866254E+01      0.5612550613E+01
          0                 2           2             4    7     1      -0.5102567796E-02       4    7    1        -0.2762904411E+00      0.5612570842E+00
          0                 3           2             4    7     1       0.3474654007E-03       4    7    1         0.1934030312E-01      0.3928796494E-01
          0                 4           1             4    7     1      -0.1382597620E-04       4    7    1        -0.7910196703E-03      0.1606880071E-02

    ------------------------------------------------
       NWT REQUIRED            4 OUTER ITERATIONS 
       AND A TOTAL OF          7 INNER ITERATIONS.
    ------------------------------------------------

 NO OUTPUT CONTROL FOR STRESS PERIOD   48   TIME STEP    1
 
 SOLVING FOR HEAD 
                                                   Max.-Head-Change                         Max.-Flux-Residual
  Residual-Control   Outer-Iter.   Inner-Iter.     Column Row Layer    Maximum-Head-Change  Column Row Layer    Maximum-Flux-Residual          L2-NORM 
          0                 1           2             4    7     1       0.5174563092E-01       4    7    1         0.2725448977E+01      0.5539597889E+01
          0                 2           2             4    7     1      -0.5033493837E-02       4    7    1        -0.2725486290E+00      0.5539617630E+00
          0                 3           2             4    7     1       0.3427617322E-03       4    7    1         0.1907837696E-01      0.3877729372E-01
          0                 4           1             4    7     1      -0.1363881257E-04       4    7    1        -0.7803068652E-03      0.1585989920E-02

    ------------------------------------------------
       NWT REQUIRED            4 OUTER ITERATIONS 
       AND A TOTAL OF          7 INNER ITERATIONS.
    ------------------------------------------------

 NO OUTPUT CONTROL FOR STRESS PERIOD   48   TIME STEP    2
 
 SOLVING FOR HEAD 
                                                   Max.-Head-Change                         Max.-Flux-Residual
  Residual-Control   Outer-Iter.   Inner-Iter.     Column Row Layer    Maximum-Head-Change  Column Row Layer    Maximum-Flux-Residual          L2-NORM 
          0                 1           2             4    7     1       0.5104572871E-01       4    7    1         0.2688559368E+01      0.5468300958E+01
          0                 2           2             4    7     1      -0.4965411208E-02       4    7    1        -0.2688595844E+00      0.5468320188E+00
          0                 3           2             4    7     1       0.3381255698E-03       4    7    1         0.1882014454E-01      0.3827821021E-01
          0                 4           1             4    7     1      -0.1345433498E-04       4    7    1        -0.7697451349E-03      0.1565580637E-02

    ------------------------------------------------
       NWT REQUIRED            4 OUTER ITERATIONS 
       AND A TOTAL OF          7 INNER ITERATIONS.
    ------------------------------------------------

 NO OUTPUT CONTROL FOR STRESS PERIOD   48   TIME STEP    3
 
 SOLVING FOR HEAD 
                                                   Max.-Head-Change                         Max.-Flux-Residual
  Residual-Control   Outer-Iter.   Inner-Iter.     Column Row Layer    Maximum-Head-Change  Column Row Layer    Maximum-Flux-Residual          L2-NORM 
          0                 1           2             4    7     1       0.5035588279E-01       4    7    1         0.2652190889E+01      0.5398596093E+01
          0                 2           2             4    7     1      -0.4898306795E-02       4    7    1        -0.2652226537E+00      0.5398614822E+00
          0                 3           2             4    7     1       0.3335560199E-03       4    7    1         0.1856556005E-01      0.3779027343E-01
          0                 4           1             4    7     1      -0.1327250855E-04       4    7    1        -0.7593326161E-03      0.1545611342E-02

    ------------------------------------------------
       NWT REQUIRED            4 OUTER ITERATIONS 
       AND A TOTAL OF          7 INNER ITERATIONS.
    ------------------------------------------------

 NO OUTPUT CONTROL FOR STRESS PERIOD   48   TIME STEP    4
 
 SOLVING FOR HEAD 
                                                   Max.-Head-Change                         Max.-Flux-Residual
  Residual-Control   Outer-Iter.   Inner-Iter.     Column Row Layer    Maximum-Head-Change  Column Row Layer    Maximum-Flux-Residual          L2-NORM 
          0                 1           2             4    7     1       0.4967621296E-01       4    7    1         0.2616351045E+01      0.5330428198E+01
          0                 2           2             4    7     1      -0.4832192252E-02       4    7    1        -0.2616385874E+00      0.5330447003E+00
          0                 3           2             4    7     1       0.3290538763E-03       4    7    1         0.1831467607E-01      0.3731317847E-01
          0                 4           1             4    7     1      -0.1309336390E-04       4    7    1        -0.7490714402E-03      0.1526110711E-02

    ------------------------------------------------
       NWT REQUIRED            4 OUTER ITERATIONS 
       AND A TOTAL OF          7 INNER ITERATIONS.
    ------------------------------------------------

 NO OUTPUT CONTROL FOR STRESS PERIOD   48   TIME STEP    5
 
 SOLVING FOR HEAD 
                                                   Max.-Head-Change                         Max.-Flux-Residual
  Residual-Control   Outer-Iter.   Inner-Iter.     Column Row Layer    Maximum-Head-Change  Column Row Layer    Maximum-Flux-Residual          L2-NORM 
          0                 1           2             4    7     1       0.4900668789E-01       4    7    1         0.2581038798E+01      0.5263754756E+01
          0                 2           2             4    7     1      -0.4767064534E-02       4    7    1        -0.2581072819E+00      0.5263772400E+00
          0                 3           2             4    7     1       0.3246189318E-03       4    7    1         0.1806748535E-01      0.3684637416E-01
          0                 4           1             4    7     1      -0.1291689332E-04       4    7    1        -0.7389613281E-03      0.1507019948E-02

    ------------------------------------------------
       NWT REQUIRED            4 OUTER ITERATIONS 
       AND A TOTAL OF          7 INNER ITERATIONS.
    ------------------------------------------------

 NO OUTPUT CONTROL FOR STRESS PERIOD   48   TIME STEP    6
 
 SOLVING FOR HEAD 
                                                   Max.-Head-Change                         Max.-Flux-Residual
  Residual-Control   Outer-Iter.   Inner-Iter.     Column Row Layer    Maximum-Head-Change  Column Row Layer    Maximum-Flux-Residual          L2-NORM 
          0                 1           2             4    7     1       0.4834726863E-01       4    7    1         0.2546252525E+01      0.5198526469E+01
          0                 2           2             4    7     1      -0.4702919852E-02       4    7    1        -0.2546285751E+00      0.5198543622E+00
          0                 3           2             4    7     1       0.3202509280E-03       4    7    1         0.1782397651E-01      0.3638976806E-01
          0                 4           1             4    7     1      -0.1274308645E-04       4    7    1        -0.7290017952E-03      0.1488340233E-02

    ------------------------------------------------
       NWT REQUIRED            4 OUTER ITERATIONS 
       AND A TOTAL OF          7 INNER ITERATIONS.
    ------------------------------------------------

 NO OUTPUT CONTROL FOR STRESS PERIOD   48   TIME STEP    7
 
 SOLVING FOR HEAD 
                                                   Max.-Head-Change                         Max.-Flux-Residual
  Residual-Control   Outer-Iter.   Inner-Iter.     Column Row Layer    Maximum-Head-Change  Column Row Layer    Maximum-Flux-Residual          L2-NORM 
          0                 1           2             4    7     1       0.4769789455E-01       4    7    1         0.2511990208E+01      0.5134694943E+01
          0                 2           2             4    7     1      -0.4639752310E-02       4    7    1        -0.2512022650E+00      0.5134711548E+00
          0                 3           2             4    7     1       0.3159494641E-03       4    7    1         0.1758413545E-01      0.3594294854E-01
          0                 4           1             4    7     1      -0.1257192682E-04       4    7    1        -0.7191922798E-03      0.1470067419E-02

    ------------------------------------------------
       NWT REQUIRED            4 OUTER ITERATIONS 
       AND A TOTAL OF          7 INNER ITERATIONS.
    ------------------------------------------------

 NO OUTPUT CONTROL FOR STRESS PERIOD   48   TIME STEP    8
 
 SOLVING FOR HEAD 
                                                   Max.-Head-Change                         Max.-Flux-Residual
  Residual-Control   Outer-Iter.   Inner-Iter.     Column Row Layer    Maximum-Head-Change  Column Row Layer    Maximum-Flux-Residual          L2-NORM 
          0                 1           2             4    7     1       0.4705850123E-01       4    7    1         0.2478248703E+01      0.5072213090E+01
          0                 2           2             4    7     1      -0.4577555641E-02       4    7    1        -0.2478280373E+00      0.5072229058E+00
          0                 3           2             4    7     1       0.3117141126E-03       4    7    1         0.1734794014E-01      0.3550557592E-01
          0                 4           1             4    7     1      -0.1240339832E-04       4    7    1        -0.7095318754E-03      0.1452822163E-02

    ------------------------------------------------
       NWT REQUIRED            4 OUTER ITERATIONS 
       AND A TOTAL OF          7 INNER ITERATIONS.
    ------------------------------------------------

 NO OUTPUT CONTROL FOR STRESS PERIOD   48   TIME STEP    9
 
 SOLVING FOR HEAD 
                                                   Max.-Head-Change                         Max.-Flux-Residual
  Residual-Control   Outer-Iter.   Inner-Iter.     Column Row Layer    Maximum-Head-Change  Column Row Layer    Maximum-Flux-Residual          L2-NORM 
          0                 1           2             4    7     1       0.4642914848E-01       4    7    1         0.2445031923E+01      0.5011050922E+01
          0                 2           2             4    7     1      -0.4516335667E-02       4    7    1        -0.2445062835E+00      0.5011066514E+00
          0                 3           2             4    7     1       0.3075452702E-03       4    7    1         0.1711541799E-01      0.3507742871E-01
          0                 4           1             4    7     1      -0.1223751637E-04       4    7    1        -0.7000217063E-03      0.1434662838E-02

    ------------------------------------------------
       NWT REQUIRED            4 OUTER ITERATIONS 
       AND A TOTAL OF          7 INNER ITERATIONS.
    ------------------------------------------------

 NO OUTPUT CONTROL FOR STRESS PERIOD   48   TIME STEP   10
 
 SOLVING FOR HEAD 
                                                   Max.-Head-Change                         Max.-Flux-Residual
  Residual-Control   Outer-Iter.   Inner-Iter.     Column Row Layer    Maximum-Head-Change  Column Row Layer    Maximum-Flux-Residual          L2-NORM 
          0                 1           2             4    7     1       0.4580974883E-01       4    7    1         0.2412335718E+01      0.4951165102E+01
          0                 2           2             4    7     1      -0.4456083878E-02       4    7    1        -0.2412365886E+00      0.4951180287E+00
          0                 3           2             4    7     1       0.3034423572E-03       4    7    1         0.1688653994E-01      0.3465823162E-01
          0                 4           1             4    7     1      -0.1207425726E-04       4    7    1        -0.6906605763E-03      0.1417523912E-02

    ------------------------------------------------
       NWT REQUIRED            4 OUTER ITERATIONS 
       AND A TOTAL OF          7 INNER ITERATIONS.
    ------------------------------------------------

 NO OUTPUT CONTROL FOR STRESS PERIOD   48   TIME STEP   11
 
 SOLVING FOR HEAD 
                                                   Max.-Head-Change                         Max.-Flux-Residual
  Residual-Control   Outer-Iter.   Inner-Iter.     Column Row Layer    Maximum-Head-Change  Column Row Layer    Maximum-Flux-Residual          L2-NORM 
          0                 1           2             4    7     1       0.4520007253E-01       4    7    1         0.2380148299E+01      0.4892506903E+01
          0                 2           2             4    7     1      -0.4396777925E-02       4    7    1        -0.2380177736E+00      0.4892521531E+00
          0                 3           2             4    7     1       0.2994038522E-03       4    7    1         0.1666122350E-01      0.3424761160E-01
          0                 4           1             4    7     1      -0.1191356170E-04       4    7    1        -0.6814451156E-03      0.1400726939E-02

    ------------------------------------------------
       NWT REQUIRED            4 OUTER ITERATIONS 
       AND A TOTAL OF          7 INNER ITERATIONS.
    ------------------------------------------------

 NO OUTPUT CONTROL FOR STRESS PERIOD   48   TIME STEP   12
 
 SOLVING FOR HEAD 
                                                   Max.-Head-Change                         Max.-Flux-Residual
  Residual-Control   Outer-Iter.   Inner-Iter.     Column Row Layer    Maximum-Head-Change  Column Row Layer    Maximum-Flux-Residual          L2-NORM 
          0                 1           2             4    7     1       0.4460015740E-01       4    7    1         0.2348472262E+01      0.4835053647E+01
          0                 2           2             4    7     1      -0.4338421489E-02       4    7    1        -0.2348500983E+00      0.4835067740E+00
          0                 3           2             4    7     1       0.2954300057E-03       4    7    1         0.1643948680E-01      0.3384543287E-01
          0                 4           1             4    7     1      -0.1175543831E-04       4    7    1        -0.6723760778E-03      0.1384278798E-02

    ------------------------------------------------
       NWT REQUIRED            4 OUTER ITERATIONS 
       AND A TOTAL OF          7 INNER ITERATIONS.
    ------------------------------------------------

 NO OUTPUT CONTROL FOR STRESS PERIOD   48   TIME STEP   13
 
 SOLVING FOR HEAD 
                                                   Max.-Head-Change                         Max.-Flux-Residual
  Residual-Control   Outer-Iter.   Inner-Iter.     Column Row Layer    Maximum-Head-Change  Column Row Layer    Maximum-Flux-Residual          L2-NORM 
          0                 1           2             4    7     1       0.4401002786E-01       4    7    1         0.2317309570E+01      0.4778764539E+01
          0                 2           2             4    7     1      -0.4281016945E-02       4    7    1        -0.2317337589E+00      0.4778778074E+00
          0                 3           2             4    7     1       0.2915209792E-03       4    7    1         0.1622134362E-01      0.3345140230E-01
          0                 4           1             4    7     1      -0.1159989448E-04       4    7    1        -0.6634540009E-03      0.1368170478E-02

    ------------------------------------------------
       NWT REQUIRED            4 OUTER ITERATIONS 
       AND A TOTAL OF          7 INNER ITERATIONS.
    ------------------------------------------------

 NO OUTPUT CONTROL FOR STRESS PERIOD   48   TIME STEP   14
 
 SOLVING FOR HEAD 
                                                   Max.-Head-Change                         Max.-Flux-Residual
  Residual-Control   Outer-Iter.   Inner-Iter.     Column Row Layer    Maximum-Head-Change  Column Row Layer    Maximum-Flux-Residual          L2-NORM 
          0                 1           2             4    7     1       0.4342930182E-01       4    7    1         0.2286639722E+01      0.4723610056E+01
          0                 2           2             4    7     1      -0.4224527127E-02       4    7    1        -0.2286667054E+00      0.4723623214E+00
          0                 3           2             4    7     1       0.2876742420E-03       4    7    1         0.1600665043E-01      0.3306532299E-01
          0                 4           1             4    7     1      -0.1144682968E-04       4    7    1        -0.6546730488E-03      0.1352367673E-02

    ------------------------------------------------
       NWT REQUIRED            4 OUTER ITERATIONS 
       AND A TOTAL OF          7 INNER ITERATIONS.
    ------------------------------------------------

 NO OUTPUT CONTROL FOR STRESS PERIOD   48   TIME STEP   15
 
 SOLVING FOR HEAD 
                                                   Max.-Head-Change                         Max.-Flux-Residual
  Residual-Control   Outer-Iter.   Inner-Iter.     Column Row Layer    Maximum-Head-Change  Column Row Layer    Maximum-Flux-Residual          L2-NORM 
          0                 1           2             4    7     1       0.4285813090E-01       4    7    1         0.2256471933E+01      0.4669549275E+01
          0                 2           2             4    7     1      -0.4168966783E-02       4    7    1        -0.2256498592E+00      0.4669562002E+00
          0                 3           2             4    7     1       0.2838907985E-03       4    7    1         0.1579547176E-01      0.3268689832E-01
          0                 4           1             4    7     1      -0.1129628273E-04       4    7    1        -0.6460358288E-03      0.1336894481E-02

    ------------------------------------------------
       NWT REQUIRED            4 OUTER ITERATIONS 
       AND A TOTAL OF          7 INNER ITERATIONS.
    ------------------------------------------------

 NO OUTPUT CONTROL FOR STRESS PERIOD   48   TIME STEP   16
 
 SOLVING FOR HEAD 
                                                   Max.-Head-Change                         Max.-Flux-Residual
  Residual-Control   Outer-Iter.   Inner-Iter.     Column Row Layer    Maximum-Head-Change  Column Row Layer    Maximum-Flux-Residual          L2-NORM 
          0                 1           2             4    7     1       0.4229625712E-01       4    7    1         0.2226792294E+01      0.4616557060E+01
          0                 2           2             4    7     1      -0.4114310817E-02       4    7    1        -0.2226818295E+00      0.4616569280E+00
          0                 3           2             4    7     1       0.2801689390E-03       4    7    1         0.1558771019E-01      0.3231594782E-01
          0                 4           1             4    7     1      -0.1114818616E-04       4    7    1        -0.6375383559E-03      0.1321722474E-02

    ------------------------------------------------
       NWT REQUIRED            4 OUTER ITERATIONS 
       AND A TOTAL OF          7 INNER ITERATIONS.
    ------------------------------------------------

 NO OUTPUT CONTROL FOR STRESS PERIOD   48   TIME STEP   17
 
 SOLVING FOR HEAD 
                                                   Max.-Head-Change                         Max.-Flux-Residual
  Residual-Control   Outer-Iter.   Inner-Iter.     Column Row Layer    Maximum-Head-Change  Column Row Layer    Maximum-Flux-Residual          L2-NORM 
          0                 1           2             4    7     1       0.4174368927E-01       4    7    1         0.2197601945E+01      0.4564610855E+01
          0                 2           2             4    7     1      -0.4060560087E-02       4    7    1        -0.2197627302E+00      0.4564622613E+00
          0                 3           2             4    7     1       0.2765087228E-03       4    7    1         0.1538337378E-01      0.3195231675E-01
          0                 4           1             4    7     1      -0.1100254260E-04       4    7    1        -0.6291809691E-03      0.1306850013E-02

    ------------------------------------------------
       NWT REQUIRED            4 OUTER ITERATIONS 
       AND A TOTAL OF          7 INNER ITERATIONS.
    ------------------------------------------------

 NO OUTPUT CONTROL FOR STRESS PERIOD   48   TIME STEP   18
 
 SOLVING FOR HEAD 
                                                   Max.-Head-Change                         Max.-Flux-Residual
  Residual-Control   Outer-Iter.   Inner-Iter.     Column Row Layer    Maximum-Head-Change  Column Row Layer    Maximum-Flux-Residual          L2-NORM 
          0                 1           2             4    7     1       0.4120029245E-01       4    7    1         0.2168894084E+01      0.4513669957E+01
          0                 2           2             4    7     1      -0.4007701469E-02       4    7    1        -0.2168918812E+00      0.4513681338E+00
          0                 3           2             4    7     1       0.2729092557E-03       4    7    1         0.1518241486E-01      0.3159572861E-01
          0                 4           1             4    7     1      -0.1085931627E-04       4    7    1        -0.6209617293E-03      0.1292265349E-02

    ------------------------------------------------
       NWT REQUIRED            4 OUTER ITERATIONS 
       AND A TOTAL OF          7 INNER ITERATIONS.
    ------------------------------------------------

 NO OUTPUT CONTROL FOR STRESS PERIOD   48   TIME STEP   19
 
 SOLVING FOR HEAD 
                                                   Max.-Head-Change                         Max.-Flux-Residual
  Residual-Control   Outer-Iter.   Inner-Iter.     Column Row Layer    Maximum-Head-Change  Column Row Layer    Maximum-Flux-Residual          L2-NORM 
          0                 1           2             4    7     1       0.4066593316E-01       4    7    1         0.2140661718E+01      0.4463709937E+01
          0                 2           2             4    7     1      -0.3955721978E-02       4    7    1        -0.2140685831E+00      0.4463720796E+00
          0                 3           2             4    7     1       0.2693696544E-03       4    7    1         0.1498478449E-01      0.3124600563E-01
          0                 4           1             4    7     1      -0.1071847262E-04       4    7    1        -0.6128786608E-03      0.1277961167E-02

    ------------------------------------------------
       NWT REQUIRED            4 OUTER ITERATIONS 
       AND A TOTAL OF          7 INNER ITERATIONS.
    ------------------------------------------------

 NO OUTPUT CONTROL FOR STRESS PERIOD   48   TIME STEP   20
 
 SOLVING FOR HEAD 
                                                   Max.-Head-Change                         Max.-Flux-Residual
  Residual-Control   Outer-Iter.   Inner-Iter.     Column Row Layer    Maximum-Head-Change  Column Row Layer    Maximum-Flux-Residual          L2-NORM 
          0                 1           2             4    7     1       0.4014034245E-01       4    7    1         0.2112890665E+01      0.4414710403E+01
          0                 2           2             4    7     1      -0.3904595450E-02       4    7    1        -0.2112914178E+00      0.4414719969E+00
          0                 3           2             4    7     1       0.2658881357E-03       4    7    1         0.1479038339E-01      0.3090299361E-01
          0                 4           1             4    7     1      -0.1057993958E-04       4    7    1        -0.6049276265E-03      0.1263929763E-02

    ------------------------------------------------
       NWT REQUIRED            4 OUTER ITERATIONS 
       AND A TOTAL OF          7 INNER ITERATIONS.
    ------------------------------------------------

 NO OUTPUT CONTROL FOR STRESS PERIOD   48   TIME STEP   21
 
 SOLVING FOR HEAD 
                                                   Max.-Head-Change                         Max.-Flux-Residual
  Residual-Control   Outer-Iter.   Inner-Iter.     Column Row Layer    Maximum-Head-Change  Column Row Layer    Maximum-Flux-Residual          L2-NORM 
          0                 1           2             4    7     1       0.3962365210E-01       4    7    1         0.2085588760E+01      0.4366641757E+01
          0                 2           2             4    7     1      -0.3854334707E-02       4    7    1        -0.2085611687E+00      0.4366651646E+00
          0                 3           2             4    7     1       0.2624655737E-03       4    7    1         0.1459926642E-01      0.3056651353E-01
          0                 4           1             4    7     1      -0.1044375214E-04       4    7    1        -0.5971109238E-03      0.1250176485E-02

    ------------------------------------------------
       NWT REQUIRED            4 OUTER ITERATIONS 
       AND A TOTAL OF          7 INNER ITERATIONS.
    ------------------------------------------------

 NO OUTPUT CONTROL FOR STRESS PERIOD   48   TIME STEP   22
 
 SOLVING FOR HEAD 
                                                   Max.-Head-Change                         Max.-Flux-Residual
  Residual-Control   Outer-Iter.   Inner-Iter.     Column Row Layer    Maximum-Head-Change  Column Row Layer    Maximum-Flux-Residual          L2-NORM 
          0                 1           2             4    7     1       0.3911558537E-01       4    7    1         0.2058741056E+01      0.4319474572E+01
          0                 2           2             4    7     1      -0.3804912828E-02       4    7    1        -0.2058763411E+00      0.4319484076E+00
          0                 3           2             4    7     1       0.2591001354E-03       4    7    1         0.1441132896E-01      0.3023634572E-01
          0                 4           1             4    7     1      -0.1030983848E-04       4    7    1        -0.5894242818E-03      0.1236666477E-02

    ------------------------------------------------
       NWT REQUIRED            4 OUTER ITERATIONS 
       AND A TOTAL OF          7 INNER ITERATIONS.
    ------------------------------------------------

 NO OUTPUT CONTROL FOR STRESS PERIOD   48   TIME STEP   23
 
 SOLVING FOR HEAD 
                                                   Max.-Head-Change                         Max.-Flux-Residual
  Residual-Control   Outer-Iter.   Inner-Iter.     Column Row Layer    Maximum-Head-Change  Column Row Layer    Maximum-Flux-Residual          L2-NORM 
          0                 1           2             4    7     1       0.3861613447E-01       4    7    1         0.2032347728E+01      0.4273196855E+01
          0                 2           2             4    7     1      -0.3756329053E-02       4    7    1        -0.2032369525E+00      0.4273206053E+00
          0                 3           2             4    7     1       0.2557917683E-03       4    7    1         0.1422657219E-01      0.2991240400E-01
          0                 4           1             4    7     1      -0.1017819537E-04       4    7    1        -0.5818677105E-03      0.1223414310E-02

    ------------------------------------------------
       NWT REQUIRED            4 OUTER ITERATIONS 
       AND A TOTAL OF          7 INNER ITERATIONS.
    ------------------------------------------------

 NO OUTPUT CONTROL FOR STRESS PERIOD   48   TIME STEP   24
 
 SOLVING FOR HEAD 
                                                   Max.-Head-Change                         Max.-Flux-Residual
  Residual-Control   Outer-Iter.   Inner-Iter.     Column Row Layer    Maximum-Head-Change  Column Row Layer    Maximum-Flux-Residual          L2-NORM 
          0                 1           2             4    7     1       0.3812501998E-01       4    7    1         0.2006393847E+01      0.4227776045E+01
          0                 2           2             4    7     1      -0.3708556204E-02       4    7    1        -0.2006415099E+00      0.4227784764E+00
          0                 3           2             4    7     1       0.2525386220E-03       4    7    1         0.1404489165E-01      0.2959444518E-01
          0                 4           1             4    7     1      -0.1004874958E-04       4    7    1        -0.5744369500E-03      0.1210410541E-02

    ------------------------------------------------
       NWT REQUIRED            4 OUTER ITERATIONS 
       AND A TOTAL OF          7 INNER ITERATIONS.
    ------------------------------------------------

 NO OUTPUT CONTROL FOR STRESS PERIOD   48   TIME STEP   25
 
 SOLVING FOR HEAD 
                                                   Max.-Head-Change                         Max.-Flux-Residual
  Residual-Control   Outer-Iter.   Inner-Iter.     Column Row Layer    Maximum-Head-Change  Column Row Layer    Maximum-Flux-Residual          L2-NORM 
          0                 1           2             4    7     1       0.3764223361E-01       4    7    1         0.1980879451E+01      0.4183189540E+01
          0                 2           2             4    7     1      -0.3661593474E-02       4    7    1        -0.1980900173E+00      0.4183197891E+00
          0                 3           2             4    7     1       0.2493406422E-03       4    7    1         0.1386628760E-01      0.2928233638E-01
          0                 4           1             4    7     1      -0.9921498810E-05       4    7    1        -0.5671320480E-03      0.1197647561E-02

    ------------------------------------------------
       NWT REQUIRED            4 OUTER ITERATIONS 
       AND A TOTAL OF          7 INNER ITERATIONS.
    ------------------------------------------------

 NO OUTPUT CONTROL FOR STRESS PERIOD   48   TIME STEP   26
 
 SOLVING FOR HEAD 
                                                   Max.-Head-Change                         Max.-Flux-Residual
  Residual-Control   Outer-Iter.   Inner-Iter.     Column Row Layer    Maximum-Head-Change  Column Row Layer    Maximum-Flux-Residual          L2-NORM 
          0                 1           2             4    7     1       0.3716763399E-01       4    7    1         0.1955796848E+01      0.4139426650E+01
          0                 2           2             4    7     1      -0.3615427112E-02       4    7    1        -0.1955817052E+00      0.4139434572E+00
          0                 3           2             4    7     1       0.2461968914E-03       4    7    1         0.1369070617E-01      0.2897600001E-01
          0                 4           1             4    7     1      -0.9796406341E-05       4    7    1        -0.5599507526E-03      0.1185122887E-02

    ------------------------------------------------
       NWT REQUIRED            4 OUTER ITERATIONS 
       AND A TOTAL OF          7 INNER ITERATIONS.
    ------------------------------------------------

 NO OUTPUT CONTROL FOR STRESS PERIOD   48   TIME STEP   27
 
 SOLVING FOR HEAD 
                                                   Max.-Head-Change                         Max.-Flux-Residual
  Residual-Control   Outer-Iter.   Inner-Iter.     Column Row Layer    Maximum-Head-Change  Column Row Layer    Maximum-Flux-Residual          L2-NORM 
          0                 1           2             4    7     1       0.3670094020E-01       4    7    1         0.1931131445E+01      0.4096456470E+01
          0                 2           2             4    7     1      -0.3570029789E-02       4    7    1        -0.1931151144E+00      0.4096463978E+00
          0                 3           2             4    7     1       0.2431055093E-03       4    7    1         0.1351804522E-01      0.2867520059E-01
          0                 4           1             4    7     1      -0.9673396990E-05       4    7    1        -0.5528889026E-03      0.1172816425E-02

    ------------------------------------------------
       NWT REQUIRED            4 OUTER ITERATIONS 
       AND A TOTAL OF          7 INNER ITERATIONS.
    ------------------------------------------------

 NO OUTPUT CONTROL FOR STRESS PERIOD   48   TIME STEP   28
 
 SOLVING FOR HEAD 
                                                   Max.-Head-Change                         Max.-Flux-Residual
  Residual-Control   Outer-Iter.   Inner-Iter.     Column Row Layer    Maximum-Head-Change  Column Row Layer    Maximum-Flux-Residual          L2-NORM 
          0                 1           2             4    7     1       0.3624227967E-01       4    7    1         0.1906890469E+01      0.4054263687E+01
          0                 2           2             4    7     1      -0.3525413903E-02       4    7    1        -0.1906909677E+00      0.4054270947E+00
          0                 3           2             4    7     1       0.2400673400E-03       4    7    1         0.1334835534E-01      0.2837985060E-01
          0                 4           1             4    7     1      -0.9552505641E-05       4    7    1        -0.5459485853E-03      0.1160732508E-02

    ------------------------------------------------
       NWT REQUIRED            4 OUTER ITERATIONS 
       AND A TOTAL OF          7 INNER ITERATIONS.
    ------------------------------------------------

 NO OUTPUT CONTROL FOR STRESS PERIOD   48   TIME STEP   29
 
 SOLVING FOR HEAD 
                                                   Max.-Head-Change                         Max.-Flux-Residual
  Residual-Control   Outer-Iter.   Inner-Iter.     Column Row Layer    Maximum-Head-Change  Column Row Layer    Maximum-Flux-Residual          L2-NORM 
          0                 1           2             4    7     1       0.3579136838E-01       4    7    1         0.1883058735E+01      0.4012825830E+01
          0                 2           2             4    7     1      -0.3481551826E-02       4    7    1        -0.1883077464E+00      0.4012832662E+00
          0                 3           2             4    7     1       0.2370805021E-03       4    7    1         0.1318153024E-01      0.2808977701E-01
          0                 4           1             4    7     1      -0.9433656541E-05       4    7    1        -0.5391254138E-03      0.1148868474E-02

    ------------------------------------------------
       NWT REQUIRED            4 OUTER ITERATIONS 
       AND A TOTAL OF          7 INNER ITERATIONS.
    ------------------------------------------------

 NO OUTPUT CONTROL FOR STRESS PERIOD   48   TIME STEP   30



 STREAM LISTING     PERIOD     48   STEP       30

 LAYER ROW COL. STREAM  RCH.  FLOW INTO     FLOW TO   FLOW OUT OF   OVRLND.     DIRECT     STREAM       STREAM     STREAM     STREAM   STREAMBED  STREAMBED
                SEG.NO.  NO.  STRM. RCH.    AQUIFER    STRM. RCH.    RUNOFF     PRECIP       ET          HEAD       DEPTH      WIDTH   CONDCTNC.   GRADIENT

   1    1    1     1     1    1.9000E+01  2.1427E-01   1.8786E+01  0.000E+00  0.000E+00  0.000E+00  1.09413E+03  1.082E+00  1.166E+01  5.249E-02  1.361E+00
   1    2    2     1     2    1.8786E+01  3.3054E-01   1.8455E+01  0.000E+00  0.000E+00  0.000E+00  1.08914E+03  1.077E+00  1.158E+01  8.107E-02  1.359E+00
   1    3    3     1     3    1.8455E+01  2.8064E-01   1.8175E+01  0.000E+00  0.000E+00  0.000E+00  1.08349E+03  1.072E+00  1.149E+01  6.892E-02  1.357E+00
   1    3    4     1     4    1.8175E+01  2.5740E-01   1.7917E+01  0.000E+00  0.000E+00  0.000E+00  1.07848E+03  1.068E+00  1.140E+01  6.328E-02  1.356E+00
   1    4    5     2     1    1.5917E+01  3.0542E-01   1.5612E+01  0.000E+00  0.000E+00  0.000E+00  1.07285E+03  9.157E-01  1.200E+01  7.800E-02  1.305E+00
   1    5    6     2     2    1.5612E+01  2.3438E-01   1.5377E+01  0.000E+00  0.000E+00  0.000E+00  1.06742E+03  9.063E-01  1.200E+01  6.000E-02  1.302E+00
   1    6    6     2     3    1.5377E+01  2.3388E-01   1.5143E+01  0.000E+00  0.000E+00  0.000E+00  1.06269E+03  8.980E-01  1.200E+01  6.000E-02  1.299E+00
   1    7    6     2     4    1.5143E+01  2.3338E-01   1.4910E+01  0.000E+00  0.000E+00  0.000E+00  1.05797E+03  8.897E-01  1.200E+01  6.000E-02  1.297E+00
   1    8    6     2     5    1.4910E+01  2.3289E-01   1.4677E+01  0.000E+00  0.000E+00  0.000E+00  1.05324E+03  8.814E-01  1.200E+01  6.000E-02  1.294E+00
   1    3    5     3     1    2.0000E+00  2.8252E-01   1.7175E+00  0.000E+00  0.000E+00  0.000E+00  1.07555E+03  1.909E+00  9.636E+00  7.227E-02  1.955E+00
   1    3    6     3     2    1.7175E+00  2.4905E-01   1.4684E+00  0.000E+00  0.000E+00  0.000E+00  1.07264E+03  1.727E+00  8.909E+00  6.682E-02  1.864E+00
   1    3    7     3     3    1.4684E+00  1.9718E-01   1.2712E+00  0.000E+00  0.000E+00  0.000E+00  1.06987E+03  1.555E+00  8.218E+00  5.547E-02  1.777E+00
   1    4    8     3     4    1.2712E+00  2.2567E-01   1.0456E+00  0.000E+00  0.000E+00  0.000E+00  1.06682E+03  1.364E+00  7.455E+00  6.709E-02  1.682E+00
   1    5    8     3     5    1.0456E+00  1.5790E-01   8.8768E-01  0.000E+00  0.000E+00  0.000E+00  1.06362E+03  1.164E+00  6.655E+00  4.991E-02  1.582E+00
   1    6    8     3     6    8.8768E-01  5.5980E-02   8.3170E-01  0.000E+00  0.000E+00  0.000E+00  1.06158E+03  1.036E+00  6.145E+00  1.844E-02  1.518E+00
   1    5   10     4     1    1.0000E+01  9.0919E-02   9.9091E+00  0.000E+00  0.000E+00  0.000E+00  1.07836E+03  6.368E-01  1.000E+01  2.500E-02  1.212E+00
   1    5    9     4     2    9.9091E+00  1.8158E-01   9.7275E+00  0.000E+00  0.000E+00  0.000E+00  1.07154E+03  6.315E-01  1.000E+01  5.000E-02  1.211E+00
   1    6    8     4     3    9.7275E+00  1.2689E-01   9.6006E+00  0.000E+00  0.000E+00  0.000E+00  1.06381E+03  6.256E-01  1.000E+01  3.500E-02  1.209E+00
   1    6    8     5     1    1.0432E+01  2.2686E-01   1.0205E+01  0.000E+00  0.000E+00  0.000E+00  1.05868E+03  6.790E-01  1.542E+01  6.166E-02  1.226E+00
   1    7    7     5     2    1.0205E+01  2.7894E-01   9.9265E+00  0.000E+00  0.000E+00  0.000E+00  1.05417E+03  6.732E-01  1.519E+01  7.594E-02  1.224E+00
   1    8    7     5     3    9.9265E+00  1.9221E-01   9.7343E+00  0.000E+00  0.000E+00  0.000E+00  1.04992E+03  6.676E-01  1.497E+01  5.241E-02  1.223E+00
   1    8    6     5     4    9.7343E+00  1.3577E-01   9.5985E+00  0.000E+00  0.000E+00  0.000E+00  1.04691E+03  6.637E-01  1.482E+01  3.706E-02  1.221E+00
   1    9    6     6     1    2.4276E+01  2.5176E-01   2.4024E+01  0.000E+00  0.000E+00  0.000E+00  1.04392E+03  1.196E+00  1.200E+01  6.000E-02  1.399E+00
   1   10    7     6     2    2.4024E+01  2.5131E-01   2.3773E+01  0.000E+00  0.000E+00  0.000E+00  1.03937E+03  1.188E+00  1.200E+01  6.000E-02  1.396E+00
   1   11    7     6     3    2.3773E+01  2.5086E-01   2.3522E+01  0.000E+00  0.000E+00  0.000E+00  1.03482E+03  1.181E+00  1.200E+01  6.000E-02  1.394E+00
   1   12    7     6     4    2.3522E+01  2.5041E-01   2.3271E+01  0.000E+00  0.000E+00  0.000E+00  1.03026E+03  1.173E+00  1.200E+01  6.000E-02  1.391E+00
   1   13    7     6     5    2.3271E+01  1.2510E-02   2.3259E+01  0.000E+00  0.000E+00  0.000E+00  1.02708E+03  1.169E+00  1.200E+01  2.400E-02  1.737E-01
   1   14    9     7     1    1.5000E+02  1.3816E+00   1.4862E+02  0.000E+00  0.000E+00  0.000E+00  1.03987E+03  2.288E+00  5.529E+01  5.593E-01  8.234E-01
   1   13    8     7     2    1.4862E+02  1.9961E+00   1.4662E+02  0.000E+00  0.000E+00  0.000E+00  1.03478E+03  2.279E+00  5.525E+01  6.147E-01  1.082E+00
   1   13    7     7     3    1.4662E+02  1.7480E+00   1.4487E+02  0.000E+00  0.000E+00  0.000E+00  1.02969E+03  2.269E+00  5.521E+01  5.584E-01  1.044E+00
   1   13    6     8     1    1.6813E+02  1.1800E+00   1.6695E+02  0.000E+00  0.000E+00  0.000E+00  1.02481E+03  2.936E+00  4.257E+01  4.338E-01  9.066E-01
   1   13    5     8     2    1.6695E+02  4.1564E-01   1.6654E+02  0.000E+00  0.000E+00  0.000E+00  1.01856E+03  2.931E+00  4.250E+01  4.331E-01  3.199E-01
   1   13    4     8     3    1.6654E+02 -1.6252E+00   1.6816E+02  0.000E+00  0.000E+00  0.000E+00  1.01231E+03  2.935E+00  4.256E+01  4.337E+00 -1.249E-01
   1   13    3     8     4    1.6816E+02 -3.2581E+00   1.7142E+02  0.000E+00  0.000E+00  0.000E+00  1.00608E+03  2.951E+00  4.279E+01  4.360E+00 -2.491E-01
   1   13    2     8     5    1.7142E+02 -2.4790E+00   1.7390E+02  0.000E+00  0.000E+00  0.000E+00  9.99844E+02  2.969E+00  4.306E+01  4.388E+00 -1.883E-01
   1   13    1     8     6    1.7390E+02 -1.9563E+00   1.7586E+02  0.000E+00  0.000E+00  0.000E+00  9.94859E+02  2.984E+00  4.326E+01  2.645E+00 -2.465E-01





UNSATURATED ZONE PACKAGE VOLUMETRIC BUDGET FOR  TIME STEP    30 STRESS PERIOD   48
  ------------------------------------------------------------------------------



     CUMULATIVE VOLUMES      L**3       RATES FOR THIS TIME STEP      L**3/T
     ------------------                 ------------------------

           IN:                                      IN:
           ---                                      ---
        INFILTRATION =  1720428237.1107          INFILTRATION =           0.8475

          OUT:                                     OUT:
          ----                                     ----
              UZF ET =  1719307766.7249                UZF ET =           0.7500
        UZF RECHARGE =       73224.0000          UZF RECHARGE =       0.0000E+00

            IN - OUT =     1047246.3858              IN - OUT =       9.7500E-02

          STORAGE:                                 STORAGE:
          --------                                 --------
      STORAGE CHANGE =     1047231.9831        STORAGE CHANGE =       9.7500E-02

 PERCENT DISCREPANCY IS DIFFERENCE BETWEEN IN-OUT MINUS CHANGE IN STORAGE
 DIVIDED BY THE AVERAGE OF IN AND OUT TIMES 100

 PERCENT DISCREPANCY =           0.00     PERCENT DISCREPANCY =           0.00






1
  VOLUMETRIC BUDGET FOR AGRICULTURAL FIELDS AT  END OF TIME STEP   30, STRESS PERIOD  48
  ------------------------------------------------------------------------------

     CUMULATIVE VOLUMES      L**3       RATES FOR THIS TIME STEP      L**3/T
     ------------------                 ------------------------

           IN:                                      IN:
           ---                                      ---
               AG WELLS  =  1615591040.0000                 AG WELLS  =           0.0000
      DIVERSION SEGMENTS =           0.0000        DIVERSION SEGMENTS =           0.0000
       IRRIGATION PONDS  =           0.0000         IRRIGATION PONDS  =           0.0000
           GW IRRIGATION =           0.0000             GW IRRIGATION =           0.0000
           SW IRRIGATION =           0.0000             SW IRRIGATION =           0.0000
        SYSTEM LOSSES GW =           0.0000          SYSTEM LOSSES GW =           0.0000
        SYSTEM LOSSES SW =           0.0000          SYSTEM LOSSES SW =           0.0000

                TOTAL IN =  1615591040.0000                  TOTAL IN =           0.0000

          OUT:                                     OUT:
          ----                                     ----
               AG WELLS  =           0.0000                 AG WELLS  =           0.0000
      DIVERSION SEGMENTS =           0.0000        DIVERSION SEGMENTS =           0.0000
       IRRIGATION PONDS  =           0.0000         IRRIGATION PONDS  =           0.0000
           GW IRRIGATION =  1615591040.0000             GW IRRIGATION =           0.0000
           SW IRRIGATION =           0.0000             SW IRRIGATION =           0.0000
        SYSTEM LOSSES GW =           0.0000          SYSTEM LOSSES GW =           0.0000
        SYSTEM LOSSES SW =           0.0000          SYSTEM LOSSES SW =           0.0000

               TOTAL OUT =  1615591040.0000                 TOTAL OUT =           0.0000

                IN - OUT =           0.0000                  IN - OUT =           0.0000

     PERCENT DISCREPANCY =           0.00         PERCENT DISCREPANCY =           0.00



1
  VOLUMETRIC BUDGET FOR ENTIRE MODEL AT END OF TIME STEP   30, STRESS PERIOD  48
  ------------------------------------------------------------------------------

     CUMULATIVE VOLUMES      L**3       RATES FOR THIS TIME STEP      L**3/T
     ------------------                 ------------------------

           IN:                                      IN:
           ---                                      ---
             STORAGE     =  2173308416.0000               STORAGE     =           9.2364
       CONSTANT HEAD     =           0.0000         CONSTANT HEAD     =           0.0000
     HEAD DEP BOUNDS     =    35423900.0000       HEAD DEP BOUNDS     =           0.2889
      STREAM LEAKAGE     =  1517134336.0000        STREAM LEAKAGE     =          12.4625
        UZF RECHARGE     =       73223.9531          UZF RECHARGE     =           0.0000
               GW ET     =           0.0000                 GW ET     =           0.0000
     SURFACE LEAKAGE     =           0.0000       SURFACE LEAKAGE     =           0.0000
           AG WELLS      =           0.0000             AG WELLS      =           0.0000

                TOTAL IN =  3725939968.0000                  TOTAL IN =          21.9877

          OUT:                                     OUT:
          ----                                     ----
             STORAGE     =   810364096.0000               STORAGE     =          12.3804
       CONSTANT HEAD     =           0.0000         CONSTANT HEAD     =           0.0000
     HEAD DEP BOUNDS     =    36069720.0000       HEAD DEP BOUNDS     =           0.2887
      STREAM LEAKAGE     =  1246315904.0000        STREAM LEAKAGE     =           9.3186
        UZF RECHARGE     =           0.0000          UZF RECHARGE     =           0.0000
               GW ET     =    17603406.0000                 GW ET     =           0.0000
     SURFACE LEAKAGE     =           0.0000       SURFACE LEAKAGE     =           0.0000
           AG WELLS      =  1615591040.0000             AG WELLS      =           0.0000

               TOTAL OUT =  3725944320.0000                 TOTAL OUT =          21.9877

                IN - OUT =       -4352.0000                  IN - OUT =       1.5259E-05

     PERCENT DISCREPANCY =          -0.00         PERCENT DISCREPANCY =           0.00






         TIME SUMMARY AT END OF TIME STEP   30 IN STRESS PERIOD   48
                    SECONDS     MINUTES      HOURS       DAYS        YEARS
                    -----------------------------------------------------------
   TIME STEP LENGTH  87667.      1461.1      24.352      1.0147     2.77799E-03
 STRESS PERIOD TIME 2.63000E+06  43833.      730.56      30.440     8.33397E-02
         TOTAL TIME 1.23695E+08 2.06158E+06  34360.      1431.7      3.9197    
1
1
                            STRESS PERIOD NO.   49, LENGTH =   2630000.    
                            -----------------------------------------------

                              NUMBER OF TIME STEPS =    30

                               MULTIPLIER FOR DELT =     1.000

                            INITIAL TIME STEP SIZE =   87666.66    

 REUSING NON-PARAMETER GHB CELLS FROM LAST STRESS PERIOD

      2 GHB CELLS

 REUSING STREAM SEGMENT DATA FROM LAST STRESS PERIOD



            AREAL INFILTRATION RATE
 READING ON UNIT   19 WITH FORMAT: (FREE)              

            1           2           3           4           5           6           7           8           9          10
 ........................................................................................................................
   1   1.0000E-10  2.0000E-10   0.000       0.000       0.000       0.000       0.000       0.000       0.000       0.000    
   2   2.0000E-10  1.0000E-10  2.0000E-10   0.000       0.000      8.0000E-10  8.0000E-10  5.0000E-10   0.000       0.000    
   3    0.000      5.0000E-10  1.0000E-10  1.0000E-10  8.0000E-10  8.0000E-10  5.0000E-10  5.0000E-10   0.000       0.000    
   4   8.0000E-10  5.0000E-10  1.0000E-10  1.0000E-10  1.0000E-10  1.0000E-10  1.0000E-10  1.0000E-10  2.0000E-10   0.000    
   5   8.0000E-10  5.0000E-10  1.0000E-10  1.0000E-10  1.0000E-10  1.0000E-10  1.0000E-10  1.0000E-10  1.0000E-10  1.0000E-10
   6   8.0000E-10  5.0000E-10  5.0000E-10  2.0000E-10  2.0000E-10  1.0000E-10  1.0000E-10  1.0000E-10  1.0000E-10  5.0000E-10
   7   8.0000E-10  5.0000E-10  5.0000E-10  2.0000E-10  2.0000E-10  1.0000E-10  1.0000E-10  2.0000E-10  2.0000E-10   0.000    
   8    0.000      5.0000E-10  5.0000E-10  2.0000E-10  2.0000E-10  1.0000E-10  1.0000E-10  2.0000E-10  5.0000E-10   0.000    
   9    0.000      5.0000E-10  5.0000E-10  2.0000E-10  2.0000E-10  1.0000E-10  1.0000E-10  2.0000E-10  5.0000E-10   0.000    
  10    0.000      5.0000E-10  5.0000E-10  2.0000E-10  2.0000E-10  1.0000E-10  1.0000E-10  2.0000E-10  5.0000E-10  8.0000E-10
  11    0.000      1.0000E-10  1.0000E-10  1.0000E-10  1.0000E-10  1.0000E-10  1.0000E-10  2.0000E-10  5.0000E-10   0.000    
  12   1.0000E-10  1.0000E-10  1.0000E-10  1.0000E-10  1.0000E-10  1.0000E-10  1.0000E-10  1.0000E-10  2.0000E-10   0.000    
  13   1.0000E-10  1.0000E-10  2.0000E-10  2.0000E-10  2.0000E-10  2.0000E-10  2.0000E-10  1.0000E-10  1.0000E-10   0.000    
  14    0.000      2.0000E-10  5.0000E-10  5.0000E-10  5.0000E-10  5.0000E-10  5.0000E-10  2.0000E-10  1.0000E-10   0.000    
  15    0.000       0.000      8.0000E-10  8.0000E-10  8.0000E-10  8.0000E-10   0.000       0.000       0.000       0.000    

                  ET RATE =  5.000000E-10

 USING ET EXTINCTION DEPTH FROM PREVIOUS STRESS PERIOD. CURRENT PERIOD IS:      49

 USING EXTINCTION WATER CONTENT FROM PREVIOUS STRESS PERIOD. CURRENT PERIOD IS:      49

 USING AIR ENTRY PRESSURE FROM PREVIOUS STRESS PERIOD. CURRENT PERIOD IS:      49

 USING ROOT PRESSURE HEAD FROM PREVIOUS STRESS PERIOD. CURRENT PERIOD IS:      49

 USING ROOT ACTIVITY FROM PREVIOUS STRESS PERIOD. CURRENT PERIOD IS:      49

 PROCESSING AG STRESS PERIOD DATA

 READING AG STRESS PERIOD DATA

 READING IRRIGATION WELL

 NO IRRPOND OR REUSING IRRPOND DATA FROM LAST STRESS PERIOD

 END PROCESSING AG STRESS PERIOD DATA OPTIONS
 
 SOLVING FOR HEAD 
                                                   Max.-Head-Change                         Max.-Flux-Residual
  Residual-Control   Outer-Iter.   Inner-Iter.     Column Row Layer    Maximum-Head-Change  Column Row Layer    Maximum-Flux-Residual          L2-NORM 
          0                 1           2             4    7     1       0.3534806500E-01       4    7    1         0.1859628780E+01      0.3972127798E+01
          0                 2           2             4    7     1      -0.3438429807E-02       4    7    1        -0.1859647042E+00      0.3972134276E+00
          0                 3           2             4    7     1       0.2341440593E-03       4    7    1         0.1301751764E-01      0.2780489451E-01
          0                 4           1             4    7     1      -0.9316812733E-05       4    7    1        -0.5324173117E-03      0.1137217082E-02

    ------------------------------------------------
       NWT REQUIRED            4 OUTER ITERATIONS 
       AND A TOTAL OF          7 INNER ITERATIONS.
    ------------------------------------------------

 NO OUTPUT CONTROL FOR STRESS PERIOD   49   TIME STEP    1
 
 SOLVING FOR HEAD 
                                                   Max.-Head-Change                         Max.-Flux-Residual
  Residual-Control   Outer-Iter.   Inner-Iter.     Column Row Layer    Maximum-Head-Change  Column Row Layer    Maximum-Flux-Residual          L2-NORM 
          0                 1           2             4    7     1       0.3491222903E-01       4    7    1         0.1836593278E+01      0.3932150853E+01
          0                 2           2             4    7     1      -0.3396034182E-02       4    7    1        -0.1836611085E+00      0.3932157039E+00
          0                 3           2             4    7     1       0.2312570806E-03       4    7    1         0.1285626629E-01      0.2752505283E-01
          0                 4           1             4    7     1      -0.9201937032E-05       4    7    1        -0.5258221047E-03      0.1125770478E-02

    ------------------------------------------------
       NWT REQUIRED            4 OUTER ITERATIONS 
       AND A TOTAL OF          7 INNER ITERATIONS.
    ------------------------------------------------

 NO OUTPUT CONTROL FOR STRESS PERIOD   49   TIME STEP    2
 
 SOLVING FOR HEAD 
                                                   Max.-Head-Change                         Max.-Flux-Residual
  Residual-Control   Outer-Iter.   Inner-Iter.     Column Row Layer    Maximum-Head-Change  Column Row Layer    Maximum-Flux-Residual          L2-NORM 
          0                 1           2             4    7     1       0.3448385324E-01       4    7    1         0.1813952210E+01      0.3892878761E+01
          0                 2           2             4    7     1      -0.3354364247E-02       4    7    1        -0.1813969574E+00      0.3892884591E+00
          0                 3           2             4    7     1       0.2284195189E-03       4    7    1         0.1269777608E-01      0.2725015168E-01
          0                 4           1             4    7     1      -0.9089027710E-05       4    7    1        -0.5193398408E-03      0.1114528611E-02

    ------------------------------------------------
       NWT REQUIRED            4 OUTER ITERATIONS 
       AND A TOTAL OF          7 INNER ITERATIONS.
    ------------------------------------------------

 NO OUTPUT CONTROL FOR STRESS PERIOD   49   TIME STEP    3
 
 SOLVING FOR HEAD 
                                                   Max.-Head-Change                         Max.-Flux-Residual
  Residual-Control   Outer-Iter.   Inner-Iter.     Column Row Layer    Maximum-Head-Change  Column Row Layer    Maximum-Flux-Residual          L2-NORM 
          0                 1           2             4    7     1       0.3406279228E-01       4    7    1         0.1791697937E+01      0.3854291867E+01
          0                 2           2             4    7     1      -0.3313405863E-02       4    7    1        -0.1791714870E+00      0.3854297226E+00
          0                 3           2             4    7     1       0.2256304109E-03       4    7    1         0.1254199348E-01      0.2698002561E-01
          0                 4           1             4    7     1      -0.8978046316E-05       4    7    1        -0.5129683141E-03      0.1103482968E-02

    ------------------------------------------------
       NWT REQUIRED            4 OUTER ITERATIONS 
       AND A TOTAL OF          7 INNER ITERATIONS.
    ------------------------------------------------

 NO OUTPUT CONTROL FOR STRESS PERIOD   49   TIME STEP    4
 
 SOLVING FOR HEAD 
                                                   Max.-Head-Change                         Max.-Flux-Residual
  Residual-Control   Outer-Iter.   Inner-Iter.     Column Row Layer    Maximum-Head-Change  Column Row Layer    Maximum-Flux-Residual          L2-NORM 
          0                 1           2             4    7     1       0.3364877150E-01       4    7    1         0.1769815653E+01      0.3816372431E+01
          0                 2           2             4    7     1      -0.3273132313E-02       4    7    1        -0.1769832166E+00      0.3816377497E+00
          0                 3           2             4    7     1       0.2228879377E-03       4    7    1         0.1238881490E-01      0.2671459025E-01
          0                 4           1             4    7     1      -0.8868920893E-05       4    7    1        -0.5067033042E-03      0.1092627707E-02

    ------------------------------------------------
       NWT REQUIRED            4 OUTER ITERATIONS 
       AND A TOTAL OF          7 INNER ITERATIONS.
    ------------------------------------------------

 NO OUTPUT CONTROL FOR STRESS PERIOD   49   TIME STEP    5
 
 SOLVING FOR HEAD 
                                                   Max.-Head-Change                         Max.-Flux-Residual
  Residual-Control   Outer-Iter.   Inner-Iter.     Column Row Layer    Maximum-Head-Change  Column Row Layer    Maximum-Flux-Residual          L2-NORM 
          0                 1           2             4    7     1       0.3324191943E-01       4    7    1         0.1748312924E+01      0.3779111164E+01
          0                 2           2             4    7     1      -0.3233556099E-02       4    7    1        -0.1748329028E+00      0.3779115846E+00
          0                 3           2             4    7     1       0.2201929500E-03       4    7    1         0.1223829325E-01      0.2645375063E-01
          0                 4           1             4    7     1      -0.8761684483E-05       4    7    1        -0.5005469513E-03      0.1081954808E-02

    ------------------------------------------------
       NWT REQUIRED            4 OUTER ITERATIONS 
       AND A TOTAL OF          7 INNER ITERATIONS.
    ------------------------------------------------

 NO OUTPUT CONTROL FOR STRESS PERIOD   49   TIME STEP    6
 
 SOLVING FOR HEAD 
                                                   Max.-Head-Change                         Max.-Flux-Residual
  Residual-Control   Outer-Iter.   Inner-Iter.     Column Row Layer    Maximum-Head-Change  Column Row Layer    Maximum-Flux-Residual          L2-NORM 
          0                 1           2             4    7     1       0.3284182957E-01       4    7    1         0.1727167339E+01      0.3742486875E+01
          0                 2           2             4    7     1      -0.3194637678E-02       4    7    1        -0.1727183045E+00      0.3742491299E+00
          0                 3           2             4    7     1       0.2175427554E-03       4    7    1         0.1209027166E-01      0.2619737601E-01
          0                 4           1             4    7     1      -0.8656230940E-05       4    7    1        -0.4944928655E-03      0.1071463532E-02

    ------------------------------------------------
       NWT REQUIRED            4 OUTER ITERATIONS 
       AND A TOTAL OF          7 INNER ITERATIONS.
    ------------------------------------------------

 NO OUTPUT CONTROL FOR STRESS PERIOD   49   TIME STEP    7
 
 SOLVING FOR HEAD 
                                                   Max.-Head-Change                         Max.-Flux-Residual
  Residual-Control   Outer-Iter.   Inner-Iter.     Column Row Layer    Maximum-Head-Change  Column Row Layer    Maximum-Flux-Residual          L2-NORM 
          0                 1           2             4    7     1       0.3244850107E-01       4    7    1         0.1706379628E+01      0.3706484827E+01
          0                 2           2             4    7     1      -0.3156376970E-02       4    7    1        -0.1706394947E+00      0.3706489110E+00
          0                 3           2             4    7     1       0.2149373485E-03       4    7    1         0.1194475528E-01      0.2594537615E-01
          0                 4           1             4    7     1      -0.8552559227E-05       4    7    1        -0.4885412252E-03      0.1061164657E-02

    ------------------------------------------------
       NWT REQUIRED            4 OUTER ITERATIONS 
       AND A TOTAL OF          7 INNER ITERATIONS.
    ------------------------------------------------

 NO OUTPUT CONTROL FOR STRESS PERIOD   49   TIME STEP    8
 
 SOLVING FOR HEAD 
                                                   Max.-Head-Change                         Max.-Flux-Residual
  Residual-Control   Outer-Iter.   Inner-Iter.     Column Row Layer    Maximum-Head-Change  Column Row Layer    Maximum-Flux-Residual          L2-NORM 
          0                 1           2             4    7     1       0.3206179902E-01       4    7    1         0.1685942480E+01      0.3671094358E+01
          0                 2           2             4    7     1      -0.3118760849E-02       4    7    1        -0.1685957421E+00      0.3671098181E+00
          0                 3           2             4    7     1       0.2123758357E-03       4    7    1         0.1180169290E-01      0.2569763618E-01
          0                 4           1             4    7     1      -0.8450634344E-05       4    7    1        -0.4826899692E-03      0.1051034763E-02

    ------------------------------------------------
       NWT REQUIRED            4 OUTER ITERATIONS 
       AND A TOTAL OF          7 INNER ITERATIONS.
    ------------------------------------------------

 NO OUTPUT CONTROL FOR STRESS PERIOD   49   TIME STEP    9
 
 SOLVING FOR HEAD 
                                                   Max.-Head-Change                         Max.-Flux-Residual
  Residual-Control   Outer-Iter.   Inner-Iter.     Column Row Layer    Maximum-Head-Change  Column Row Layer    Maximum-Flux-Residual          L2-NORM 
          0                 1           2             4    7     1       0.3168172637E-01       4    7    1         0.1665856169E+01      0.3636297696E+01
          0                 2           2             4    7     1      -0.3081789604E-02       4    7    1        -0.1665870742E+00      0.3636301259E+00
          0                 3           2             4    7     1       0.2098582364E-03       4    7    1         0.1166108644E-01      0.2545406276E-01
          0                 4           1             4    7     1      -0.8350456754E-05       4    7    1        -0.4769391703E-03      0.1041074005E-02

    ------------------------------------------------
       NWT REQUIRED            4 OUTER ITERATIONS 
       AND A TOTAL OF          7 INNER ITERATIONS.
    ------------------------------------------------

 NO OUTPUT CONTROL FOR STRESS PERIOD   49   TIME STEP   10
 
 SOLVING FOR HEAD 
                                                   Max.-Head-Change                         Max.-Flux-Residual
  Residual-Control   Outer-Iter.   Inner-Iter.     Column Row Layer    Maximum-Head-Change  Column Row Layer    Maximum-Flux-Residual          L2-NORM 
          0                 1           2             4    7     1       0.3130801181E-01       4    7    1         0.1646106307E+01      0.3602085047E+01
          0                 2           2             4    7     1      -0.3045436842E-02       4    7    1        -0.1646120524E+00      0.3602087958E+00
          0                 3           2             4    7     1       0.2073827533E-03       4    7    1         0.1152283519E-01      0.2521456787E-01
          0                 4           1             4    7     1      -0.8251954730E-05       4    7    1        -0.4712846739E-03      0.1031275764E-02

    ------------------------------------------------
       NWT REQUIRED            4 OUTER ITERATIONS 
       AND A TOTAL OF          7 INNER ITERATIONS.
    ------------------------------------------------

 NO OUTPUT CONTROL FOR STRESS PERIOD   49   TIME STEP   11
 
 SOLVING FOR HEAD 
                                                   Max.-Head-Change                         Max.-Flux-Residual
  Residual-Control   Outer-Iter.   Inner-Iter.     Column Row Layer    Maximum-Head-Change  Column Row Layer    Maximum-Flux-Residual          L2-NORM 
          0                 1           2             4    7     1       0.3094052747E-01       4    7    1         0.1626686099E+01      0.3568440366E+01
          0                 2           2             4    7     1      -0.3009690124E-02       4    7    1        -0.1626699968E+00      0.3568443386E+00
          0                 3           2             4    7     1       0.2049485390E-03       4    7    1         0.1138689156E-01      0.2497905251E-01
          0                 4           1             4    7     1      -0.8155095117E-05       4    7    1        -0.4657245706E-03      0.1021648271E-02

    ------------------------------------------------
       NWT REQUIRED            4 OUTER ITERATIONS 
       AND A TOTAL OF          7 INNER ITERATIONS.
    ------------------------------------------------

 NO OUTPUT CONTROL FOR STRESS PERIOD   49   TIME STEP   12
 
 SOLVING FOR HEAD 
                                                   Max.-Head-Change                         Max.-Flux-Residual
  Residual-Control   Outer-Iter.   Inner-Iter.     Column Row Layer    Maximum-Head-Change  Column Row Layer    Maximum-Flux-Residual          L2-NORM 
          0                 1           2             4    7     1       0.3057928321E-01       4    7    1         0.1607596187E+01      0.3535357775E+01
          0                 2           2             4    7     1      -0.2974550408E-02       4    7    1        -0.1607609716E+00      0.3535360532E+00
          0                 3           2             4    7     1       0.2025556600E-03       4    7    1         0.1125326008E-01      0.2474747415E-01
          0                 4           1             4    7     1      -0.8059880447E-05       4    7    1        -0.4602590466E-03      0.1012181176E-02

    ------------------------------------------------
       NWT REQUIRED            4 OUTER ITERATIONS 
       AND A TOTAL OF          7 INNER ITERATIONS.
    ------------------------------------------------

 NO OUTPUT CONTROL FOR STRESS PERIOD   49   TIME STEP   13
 
 SOLVING FOR HEAD 
                                                   Max.-Head-Change                         Max.-Flux-Residual
  Residual-Control   Outer-Iter.   Inner-Iter.     Column Row Layer    Maximum-Head-Change  Column Row Layer    Maximum-Flux-Residual          L2-NORM 
          0                 1           2             4    7     1       0.3022401206E-01       4    7    1         0.1588822536E+01      0.3502807092E+01
          0                 2           2             4    7     1      -0.2939991638E-02       4    7    1        -0.1588835736E+00      0.3502716031E+00
          0                 3           2             4    7     1       0.2002023405E-03       4    7    1         0.1112184248E-01      0.2451895564E-01
          0                 4           1             4    7     1      -0.7966239341E-05       4    7    1        -0.4548840507E-03      0.1002828490E-02

    ------------------------------------------------
       NWT REQUIRED            4 OUTER ITERATIONS 
       AND A TOTAL OF          7 INNER ITERATIONS.
    ------------------------------------------------

 NO OUTPUT CONTROL FOR STRESS PERIOD   49   TIME STEP   14
 
 SOLVING FOR HEAD 
                                                   Max.-Head-Change                         Max.-Flux-Residual
  Residual-Control   Outer-Iter.   Inner-Iter.     Column Row Layer    Maximum-Head-Change  Column Row Layer    Maximum-Flux-Residual          L2-NORM 
          0                 1           2             4    7     1       0.2987472768E-01       4    7    1         0.1570365857E+01      0.3470793277E+01
          0                 2           2             4    7     1      -0.2906015388E-02       4    7    1        -0.1570378736E+00      0.3470646815E+00
          0                 3           2             4    7     1       0.1978886882E-03       4    7    1         0.1099264371E-01      0.2429447286E-01
          0                 4           1             4    7     1      -0.7874176980E-05       4    7    1        -0.4495998046E-03      0.9936463534E-03

    ------------------------------------------------
       NWT REQUIRED            4 OUTER ITERATIONS 
       AND A TOTAL OF          7 INNER ITERATIONS.
    ------------------------------------------------

 NO OUTPUT CONTROL FOR STRESS PERIOD   49   TIME STEP   15
 
 SOLVING FOR HEAD 
                                                   Max.-Head-Change                         Max.-Flux-Residual
  Residual-Control   Outer-Iter.   Inner-Iter.     Column Row Layer    Maximum-Head-Change  Column Row Layer    Maximum-Flux-Residual          L2-NORM 
          0                 1           2             4    7     1       0.2953130855E-01       4    7    1         0.1552219571E+01      0.3439366045E+01
          0                 2           2             4    7     1      -0.2872609634E-02       4    7    1        -0.1552232139E+00      0.3439368432E+00
          0                 3           2             4    7     1       0.1956138852E-03       4    7    1         0.1086561778E-01      0.2407564503E-01
          0                 4           1             4    7     1      -0.7783660782E-05       4    7    1        -0.4444044512E-03      0.9850425366E-03

    ------------------------------------------------
       NWT REQUIRED            4 OUTER ITERATIONS 
       AND A TOTAL OF          7 INNER ITERATIONS.
    ------------------------------------------------

 NO OUTPUT CONTROL FOR STRESS PERIOD   49   TIME STEP   16
 
 SOLVING FOR HEAD 
                                                   Max.-Head-Change                         Max.-Flux-Residual
  Residual-Control   Outer-Iter.   Inner-Iter.     Column Row Layer    Maximum-Head-Change  Column Row Layer    Maximum-Flux-Residual          L2-NORM 
          0                 1           2             4    7     1       0.2919363119E-01       4    7    1         0.1534377389E+01      0.3408452295E+01
          0                 2           2             4    7     1      -0.2839762386E-02       4    7    1        -0.1534389653E+00      0.3408454322E+00
          0                 3           2             4    7     1       0.1933771135E-03       4    7    1         0.1074072061E-01      0.2385912397E-01
          0                 4           1             4    7     1      -0.7694657476E-05       4    7    1        -0.4392961421E-03      0.9758332547E-03

    ------------------------------------------------
       NWT REQUIRED            4 OUTER ITERATIONS 
       AND A TOTAL OF          7 INNER ITERATIONS.
    ------------------------------------------------

 NO OUTPUT CONTROL FOR STRESS PERIOD   49   TIME STEP   17
 
 SOLVING FOR HEAD 
                                                   Max.-Head-Change                         Max.-Flux-Residual
  Residual-Control   Outer-Iter.   Inner-Iter.     Column Row Layer    Maximum-Head-Change  Column Row Layer    Maximum-Flux-Residual          L2-NORM 
          0                 1           2             4    7     1       0.2886157646E-01       4    7    1         0.1516832907E+01      0.3378033600E+01
          0                 2           2             4    7     1      -0.2807462081E-02       4    7    1        -0.1516844875E+00      0.3378035352E+00
          0                 3           2             4    7     1       0.1911775866E-03       4    7    1         0.1061790739E-01      0.2364620689E-01
          0                 4           1             4    7     1      -0.7607135978E-05       4    7    1        -0.4342730658E-03      0.9671485467E-03

    ------------------------------------------------
       NWT REQUIRED            4 OUTER ITERATIONS 
       AND A TOTAL OF          7 INNER ITERATIONS.
    ------------------------------------------------

 NO OUTPUT CONTROL FOR STRESS PERIOD   49   TIME STEP   18
 
 SOLVING FOR HEAD 
                                                   Max.-Head-Change                         Max.-Flux-Residual
  Residual-Control   Outer-Iter.   Inner-Iter.     Column Row Layer    Maximum-Head-Change  Column Row Layer    Maximum-Flux-Residual          L2-NORM 
          0                 1           2             4    7     1       0.2853502969E-01       4    7    1         0.1499579948E+01      0.3348106354E+01
          0                 2           2             4    7     1      -0.2775697560E-02       4    7    1        -0.1499591628E+00      0.3348107985E+00
          0                 3           2             4    7     1       0.1890145445E-03       4    7    1         0.1049713487E-01      0.2343670525E-01
          0                 4           1             4    7     1      -0.7521066353E-05       4    7    1        -0.4293334598E-03      0.9585625494E-03

    ------------------------------------------------
       NWT REQUIRED            4 OUTER ITERATIONS 
       AND A TOTAL OF          7 INNER ITERATIONS.
    ------------------------------------------------

 NO OUTPUT CONTROL FOR STRESS PERIOD   49   TIME STEP   19
 
 SOLVING FOR HEAD 
                                                   Max.-Head-Change                         Max.-Flux-Residual
  Residual-Control   Outer-Iter.   Inner-Iter.     Column Row Layer    Maximum-Head-Change  Column Row Layer    Maximum-Flux-Residual          L2-NORM 
          0                 1           2             4    7     1       0.2821387367E-01       4    7    1         0.1482612564E+01      0.3318644592E+01
          0                 2           2             4    7     1      -0.2744457424E-02       4    7    1        -0.1482623964E+00      0.3318645972E+00
          0                 3           2             4    7     1       0.1868872113E-03       4    7    1         0.1037836144E-01      0.2323047309E-01
          0                 4           1             4    7     1      -0.7436418210E-05       4    7    1        -0.4244756356E-03      0.9501252005E-03

    ------------------------------------------------
       NWT REQUIRED            4 OUTER ITERATIONS 
       AND A TOTAL OF          7 INNER ITERATIONS.
    ------------------------------------------------

 NO OUTPUT CONTROL FOR STRESS PERIOD   49   TIME STEP   20
 
 SOLVING FOR HEAD 
                                                   Max.-Head-Change                         Max.-Flux-Residual
  Residual-Control   Outer-Iter.   Inner-Iter.     Column Row Layer    Maximum-Head-Change  Column Row Layer    Maximum-Flux-Residual          L2-NORM 
          0                 1           2             4    7     1       0.2789799703E-01       4    7    1         0.1465924680E+01      0.3289649362E+01
          0                 2           2             4    7     1      -0.2713730838E-02       4    7    1        -0.1465935807E+00      0.3289650440E+00
          0                 3           2             4    7     1       0.1847948488E-03       4    7    1         0.1026154455E-01      0.2302749259E-01
          0                 4           1             4    7     1      -0.7353160922E-05       4    7    1        -0.4196978155E-03      0.9418221508E-03

    ------------------------------------------------
       NWT REQUIRED            4 OUTER ITERATIONS 
       AND A TOTAL OF          7 INNER ITERATIONS.
    ------------------------------------------------

 NO OUTPUT CONTROL FOR STRESS PERIOD   49   TIME STEP   21
 
 SOLVING FOR HEAD 
                                                   Max.-Head-Change                         Max.-Flux-Residual
  Residual-Control   Outer-Iter.   Inner-Iter.     Column Row Layer    Maximum-Head-Change  Column Row Layer    Maximum-Flux-Residual          L2-NORM 
          0                 1           2             4    7     1       0.2758742036E-01       4    7    1         0.1449517798E+01      0.3261109753E+01
          0                 2           2             4    7     1      -0.2683519807E-02       4    7    1        -0.1449528660E+00      0.3261110501E+00
          0                 3           2             4    7     1       0.1827375935E-03       4    7    1         0.1014669474E-01      0.2282769890E-01
          0                 4           1             4    7     1      -0.7271300939E-05       4    7    1        -0.4150004445E-03      0.9336410552E-03

    ------------------------------------------------
       NWT REQUIRED            4 OUTER ITERATIONS 
       AND A TOTAL OF          7 INNER ITERATIONS.
    ------------------------------------------------

 NO OUTPUT CONTROL FOR STRESS PERIOD   49   TIME STEP   22
 
 SOLVING FOR HEAD 
                                                   Max.-Head-Change                         Max.-Flux-Residual
  Residual-Control   Outer-Iter.   Inner-Iter.     Column Row Layer    Maximum-Head-Change  Column Row Layer    Maximum-Flux-Residual          L2-NORM 
          0                 1           2             4    7     1       0.2728189891E-01       4    7    1         0.1433378432E+01      0.3233013673E+01
          0                 2           2             4    7     1      -0.2653800519E-02       4    7    1        -0.1433389036E+00      0.3233014349E+00
          0                 3           2             4    7     1       0.1807138236E-03       4    7    1         0.1003371756E-01      0.2263104560E-01
          0                 4           1             4    7     1      -0.7190772981E-05       4    7    1        -0.4103796650E-03      0.9256065375E-03

    ------------------------------------------------
       NWT REQUIRED            4 OUTER ITERATIONS 
       AND A TOTAL OF          7 INNER ITERATIONS.
    ------------------------------------------------

 NO OUTPUT CONTROL FOR STRESS PERIOD   49   TIME STEP   23
 
 SOLVING FOR HEAD 
                                                   Max.-Head-Change                         Max.-Flux-Residual
  Residual-Control   Outer-Iter.   Inner-Iter.     Column Row Layer    Maximum-Head-Change  Column Row Layer    Maximum-Flux-Residual          L2-NORM 
          0                 1           2             4    7     1       0.2698132728E-01       4    7    1         0.1417501169E+01      0.3205356297E+01
          0                 2           2             4    7     1      -0.2624562725E-02       4    7    1        -0.1417511521E+00      0.3205356771E+00
          0                 3           2             4    7     1       0.1787228420E-03       4    7    1         0.9922575148E-02      0.2243744109E-01
          0                 4           1             4    7     1      -0.7111550111E-05       4    7    1        -0.4058339387E-03      0.9176899456E-03

    ------------------------------------------------
       NWT REQUIRED            4 OUTER ITERATIONS 
       AND A TOTAL OF          7 INNER ITERATIONS.
    ------------------------------------------------

 NO OUTPUT CONTROL FOR STRESS PERIOD   49   TIME STEP   24
 
 SOLVING FOR HEAD 
                                                   Max.-Head-Change                         Max.-Flux-Residual
  Residual-Control   Outer-Iter.   Inner-Iter.     Column Row Layer    Maximum-Head-Change  Column Row Layer    Maximum-Flux-Residual          L2-NORM 
          0                 1           2             4    7     1       0.2668573675E-01       4    7    1         0.1401887822E+01      0.3178124233E+01
          0                 2           2             4    7     1      -0.2595809467E-02       4    7    1        -0.1401897930E+00      0.3178124467E+00
          0                 3           2             4    7     1       0.1767648552E-03       4    7    1         0.9813280192E-02      0.2224681280E-01
          0                 4           1             4    7     1      -0.7033639810E-05       4    7    1        -0.4013637597E-03      0.9104190364E-03

    ------------------------------------------------
       NWT REQUIRED            4 OUTER ITERATIONS 
       AND A TOTAL OF          7 INNER ITERATIONS.
    ------------------------------------------------

 NO OUTPUT CONTROL FOR STRESS PERIOD   49   TIME STEP   25
 
 SOLVING FOR HEAD 
                                                   Max.-Head-Change                         Max.-Flux-Residual
  Residual-Control   Outer-Iter.   Inner-Iter.     Column Row Layer    Maximum-Head-Change  Column Row Layer    Maximum-Flux-Residual          L2-NORM 
          0                 1           2             4    7     1       0.2639488746E-01       4    7    1         0.1386525457E+01      0.3151312899E+01
          0                 2           2             4    7     1      -0.2567517410E-02       4    7    1        -0.1386535327E+00      0.3151312331E+00
          0                 3           2             4    7     1       0.1748382744E-03       4    7    1         0.9705742145E-02      0.2205907410E-01
          0                 4           1             4    7     1      -0.6956979334E-05       4    7    1        -0.3969654467E-03      0.9022167422E-03

    ------------------------------------------------
       NWT REQUIRED            4 OUTER ITERATIONS 
       AND A TOTAL OF          7 INNER ITERATIONS.
    ------------------------------------------------

 NO OUTPUT CONTROL FOR STRESS PERIOD   49   TIME STEP   26
 
 SOLVING FOR HEAD 
                                                   Max.-Head-Change                         Max.-Flux-Residual
  Residual-Control   Outer-Iter.   Inner-Iter.     Column Row Layer    Maximum-Head-Change  Column Row Layer    Maximum-Flux-Residual          L2-NORM 
          0                 1           2             4    7     1       0.2610881020E-01       4    7    1         0.1371416194E+01      0.3124903040E+01
          0                 2           2             4    7     1      -0.2539689552E-02       4    7    1        -0.1371425833E+00      0.3124902897E+00
          0                 3           2             4    7     1       0.1729433040E-03       4    7    1         0.9599975860E-02      0.2187419704E-01
          0                 4           1             4    7     1      -0.6881576973E-05       4    7    1        -0.3926396153E-03      0.8946024036E-03

    ------------------------------------------------
       NWT REQUIRED            4 OUTER ITERATIONS 
       AND A TOTAL OF          7 INNER ITERATIONS.
    ------------------------------------------------

 NO OUTPUT CONTROL FOR STRESS PERIOD   49   TIME STEP   27
 
 SOLVING FOR HEAD 
                                                   Max.-Head-Change                         Max.-Flux-Residual
  Residual-Control   Outer-Iter.   Inner-Iter.     Column Row Layer    Maximum-Head-Change  Column Row Layer    Maximum-Flux-Residual          L2-NORM 
          0                 1           2             4    7     1       0.2582740469E-01       4    7    1         0.1356554353E+01      0.3098901529E+01
          0                 2           2             4    7     1      -0.2512316137E-02       4    7    1        -0.1356563766E+00      0.3098901064E+00
          0                 3           2             4    7     1       0.1710792790E-03       4    7    1         0.9495941555E-02      0.2169223923E-01
          0                 4           1             4    7     1      -0.6807405440E-05       4    7    1        -0.3883845943E-03      0.8872076621E-03

    ------------------------------------------------
       NWT REQUIRED            4 OUTER ITERATIONS 
       AND A TOTAL OF          7 INNER ITERATIONS.
    ------------------------------------------------

 NO OUTPUT CONTROL FOR STRESS PERIOD   49   TIME STEP   28
 
 SOLVING FOR HEAD 
                                                   Max.-Head-Change                         Max.-Flux-Residual
  Residual-Control   Outer-Iter.   Inner-Iter.     Column Row Layer    Maximum-Head-Change  Column Row Layer    Maximum-Flux-Residual          L2-NORM 
          0                 1           2             4    7     1       0.2555057207E-01       4    7    1         0.1341934732E+01      0.3073293054E+01
          0                 2           2             4    7     1      -0.2485388349E-02       4    7    1        -0.1341943925E+00      0.3073801005E+00
          0                 3           2             4    7     1       0.1692455995E-03       4    7    1         0.9393602838E-02      0.2151655449E-01
          0                 4           1             4    7     1      -0.6734441597E-05       4    7    1        -0.3841989299E-03      0.8800330792E-03

    ------------------------------------------------
       NWT REQUIRED            4 OUTER ITERATIONS 
       AND A TOTAL OF          7 INNER ITERATIONS.
    ------------------------------------------------

 NO OUTPUT CONTROL FOR STRESS PERIOD   49   TIME STEP   29
 
 SOLVING FOR HEAD 
                                                   Max.-Head-Change                         Max.-Flux-Residual
  Residual-Control   Outer-Iter.   Inner-Iter.     Column Row Layer    Maximum-Head-Change  Column Row Layer    Maximum-Flux-Residual          L2-NORM 
          0                 1           2             4    7     1       0.2527820844E-01       4    7    1         0.1327552165E+01      0.3048017303E+01
          0                 2           2             4    7     1      -0.2458893679E-02       4    7    1        -0.1327561145E+00      0.3048016748E+00
          0                 3           2             4    7     1       0.1674414140E-03       4    7    1         0.9292923526E-02      0.2133605738E-01
          0                 4           1             4    7     1      -0.6662651594E-05       4    7    1        -0.3800811548E-03      0.8726412478E-03

    ------------------------------------------------
       NWT REQUIRED            4 OUTER ITERATIONS 
       AND A TOTAL OF          7 INNER ITERATIONS.
    ------------------------------------------------

 NO OUTPUT CONTROL FOR STRESS PERIOD   49   TIME STEP   30



 STREAM LISTING     PERIOD     49   STEP       30

 LAYER ROW COL. STREAM  RCH.  FLOW INTO     FLOW TO   FLOW OUT OF   OVRLND.     DIRECT     STREAM       STREAM     STREAM     STREAM   STREAMBED  STREAMBED
                SEG.NO.  NO.  STRM. RCH.    AQUIFER    STRM. RCH.    RUNOFF     PRECIP       ET          HEAD       DEPTH      WIDTH   CONDCTNC.   GRADIENT

   1    1    1     1     1    1.9000E+01  2.1427E-01   1.8786E+01  0.000E+00  0.000E+00  0.000E+00  1.09413E+03  1.082E+00  1.166E+01  5.249E-02  1.361E+00
   1    2    2     1     2    1.8786E+01  3.3054E-01   1.8455E+01  0.000E+00  0.000E+00  0.000E+00  1.08914E+03  1.077E+00  1.158E+01  8.107E-02  1.359E+00
   1    3    3     1     3    1.8455E+01  2.8064E-01   1.8175E+01  0.000E+00  0.000E+00  0.000E+00  1.08349E+03  1.072E+00  1.149E+01  6.892E-02  1.357E+00
   1    3    4     1     4    1.8175E+01  2.5740E-01   1.7917E+01  0.000E+00  0.000E+00  0.000E+00  1.07848E+03  1.068E+00  1.140E+01  6.328E-02  1.356E+00
   1    4    5     2     1    1.5917E+01  3.0542E-01   1.5612E+01  0.000E+00  0.000E+00  0.000E+00  1.07285E+03  9.157E-01  1.200E+01  7.800E-02  1.305E+00
   1    5    6     2     2    1.5612E+01  2.3438E-01   1.5377E+01  0.000E+00  0.000E+00  0.000E+00  1.06742E+03  9.063E-01  1.200E+01  6.000E-02  1.302E+00
   1    6    6     2     3    1.5377E+01  2.3388E-01   1.5143E+01  0.000E+00  0.000E+00  0.000E+00  1.06269E+03  8.980E-01  1.200E+01  6.000E-02  1.299E+00
   1    7    6     2     4    1.5143E+01  2.3338E-01   1.4910E+01  0.000E+00  0.000E+00  0.000E+00  1.05797E+03  8.897E-01  1.200E+01  6.000E-02  1.297E+00
   1    8    6     2     5    1.4910E+01  2.3289E-01   1.4677E+01  0.000E+00  0.000E+00  0.000E+00  1.05324E+03  8.814E-01  1.200E+01  6.000E-02  1.294E+00
   1    3    5     3     1    2.0000E+00  2.8252E-01   1.7175E+00  0.000E+00  0.000E+00  0.000E+00  1.07555E+03  1.909E+00  9.636E+00  7.227E-02  1.955E+00
   1    3    6     3     2    1.7175E+00  2.4905E-01   1.4684E+00  0.000E+00  0.000E+00  0.000E+00  1.07264E+03  1.727E+00  8.909E+00  6.682E-02  1.864E+00
   1    3    7     3     3    1.4684E+00  1.9718E-01   1.2712E+00  0.000E+00  0.000E+00  0.000E+00  1.06987E+03  1.555E+00  8.218E+00  5.547E-02  1.777E+00
   1    4    8     3     4    1.2712E+00  2.2567E-01   1.0456E+00  0.000E+00  0.000E+00  0.000E+00  1.06682E+03  1.364E+00  7.455E+00  6.709E-02  1.682E+00
   1    5    8     3     5    1.0456E+00  1.5790E-01   8.8768E-01  0.000E+00  0.000E+00  0.000E+00  1.06362E+03  1.164E+00  6.655E+00  4.991E-02  1.582E+00
   1    6    8     3     6    8.8768E-01  5.5980E-02   8.3170E-01  0.000E+00  0.000E+00  0.000E+00  1.06158E+03  1.036E+00  6.145E+00  1.844E-02  1.518E+00
   1    5   10     4     1    1.0000E+01  9.0919E-02   9.9091E+00  0.000E+00  0.000E+00  0.000E+00  1.07836E+03  6.368E-01  1.000E+01  2.500E-02  1.212E+00
   1    5    9     4     2    9.9091E+00  1.8158E-01   9.7275E+00  0.000E+00  0.000E+00  0.000E+00  1.07154E+03  6.315E-01  1.000E+01  5.000E-02  1.211E+00
   1    6    8     4     3    9.7275E+00  1.2689E-01   9.6006E+00  0.000E+00  0.000E+00  0.000E+00  1.06381E+03  6.256E-01  1.000E+01  3.500E-02  1.209E+00
   1    6    8     5     1    1.0432E+01  2.2686E-01   1.0205E+01  0.000E+00  0.000E+00  0.000E+00  1.05868E+03  6.790E-01  1.542E+01  6.166E-02  1.226E+00
   1    7    7     5     2    1.0205E+01  2.7894E-01   9.9265E+00  0.000E+00  0.000E+00  0.000E+00  1.05417E+03  6.732E-01  1.519E+01  7.594E-02  1.224E+00
   1    8    7     5     3    9.9265E+00  1.9221E-01   9.7343E+00  0.000E+00  0.000E+00  0.000E+00  1.04992E+03  6.676E-01  1.497E+01  5.241E-02  1.223E+00
   1    8    6     5     4    9.7343E+00  1.3577E-01   9.5985E+00  0.000E+00  0.000E+00  0.000E+00  1.04691E+03  6.637E-01  1.482E+01  3.706E-02  1.221E+00
   1    9    6     6     1    2.4276E+01  2.5176E-01   2.4024E+01  0.000E+00  0.000E+00  0.000E+00  1.04392E+03  1.196E+00  1.200E+01  6.000E-02  1.399E+00
   1   10    7     6     2    2.4024E+01  2.5131E-01   2.3773E+01  0.000E+00  0.000E+00  0.000E+00  1.03937E+03  1.188E+00  1.200E+01  6.000E-02  1.396E+00
   1   11    7     6     3    2.3773E+01  2.5086E-01   2.3522E+01  0.000E+00  0.000E+00  0.000E+00  1.03482E+03  1.181E+00  1.200E+01  6.000E-02  1.394E+00
   1   12    7     6     4    2.3522E+01  2.5041E-01   2.3271E+01  0.000E+00  0.000E+00  0.000E+00  1.03026E+03  1.173E+00  1.200E+01  6.000E-02  1.391E+00
   1   13    7     6     5    2.3271E+01  1.2944E-02   2.3258E+01  0.000E+00  0.000E+00  0.000E+00  1.02708E+03  1.169E+00  1.200E+01  2.400E-02  1.798E-01
   1   14    9     7     1    1.5000E+02  1.3834E+00   1.4862E+02  0.000E+00  0.000E+00  0.000E+00  1.03987E+03  2.288E+00  5.529E+01  5.593E-01  8.245E-01
   1   13    8     7     2    1.4862E+02  2.0010E+00   1.4662E+02  0.000E+00  0.000E+00  0.000E+00  1.03478E+03  2.279E+00  5.525E+01  6.147E-01  1.085E+00
   1   13    7     7     3    1.4662E+02  1.7581E+00   1.4486E+02  0.000E+00  0.000E+00  0.000E+00  1.02969E+03  2.269E+00  5.521E+01  5.584E-01  1.050E+00
   1   13    6     8     1    1.6812E+02  1.1909E+00   1.6693E+02  0.000E+00  0.000E+00  0.000E+00  1.02481E+03  2.936E+00  4.257E+01  4.338E-01  9.150E-01
   1   13    5     8     2    1.6693E+02  4.2665E-01   1.6650E+02  0.000E+00  0.000E+00  0.000E+00  1.01856E+03  2.931E+00  4.249E+01  4.330E-01  3.284E-01
   1   13    4     8     3    1.6650E+02 -1.5864E+00   1.6808E+02  0.000E+00  0.000E+00  0.000E+00  1.01231E+03  2.934E+00  4.255E+01  4.336E+00 -1.220E-01
   1   13    3     8     4    1.6808E+02 -3.2398E+00   1.7132E+02  0.000E+00  0.000E+00  0.000E+00  1.00608E+03  2.950E+00  4.278E+01  4.359E+00 -2.477E-01
   1   13    2     8     5    1.7132E+02 -2.4755E+00   1.7380E+02  0.000E+00  0.000E+00  0.000E+00  9.99844E+02  2.969E+00  4.305E+01  4.387E+00 -1.881E-01
   1   13    1     8     6    1.7380E+02 -1.9555E+00   1.7576E+02  0.000E+00  0.000E+00  0.000E+00  9.94858E+02  2.983E+00  4.325E+01  2.645E+00 -2.465E-01





UNSATURATED ZONE PACKAGE VOLUMETRIC BUDGET FOR  TIME STEP    30 STRESS PERIOD   49
  ------------------------------------------------------------------------------



     CUMULATIVE VOLUMES      L**3       RATES FOR THIS TIME STEP      L**3/T
     ------------------                 ------------------------

           IN:                                      IN:
           ---                                      ---
        INFILTRATION =  1722657161.9834          INFILTRATION =           0.8475

          OUT:                                     OUT:
          ----                                     ----
              UZF ET =  1721280266.6166                UZF ET =           0.7500
        UZF RECHARGE =       73224.0000          UZF RECHARGE =       0.0000E+00

            IN - OUT =     1303671.3668              IN - OUT =       9.7500E-02

          STORAGE:                                 STORAGE:
          --------                                 --------
      STORAGE CHANGE =     1303656.9850        STORAGE CHANGE =       9.7500E-02

 PERCENT DISCREPANCY IS DIFFERENCE BETWEEN IN-OUT MINUS CHANGE IN STORAGE
 DIVIDED BY THE AVERAGE OF IN AND OUT TIMES 100

 PERCENT DISCREPANCY =           0.00     PERCENT DISCREPANCY =           0.00






1
  VOLUMETRIC BUDGET FOR AGRICULTURAL FIELDS AT  END OF TIME STEP   30, STRESS PERIOD  49
  ------------------------------------------------------------------------------

     CUMULATIVE VOLUMES      L**3       RATES FOR THIS TIME STEP      L**3/T
     ------------------                 ------------------------

           IN:                                      IN:
           ---                                      ---
               AG WELLS  =  1615591040.0000                 AG WELLS  =           0.0000
      DIVERSION SEGMENTS =           0.0000        DIVERSION SEGMENTS =           0.0000
       IRRIGATION PONDS  =           0.0000         IRRIGATION PONDS  =           0.0000
           GW IRRIGATION =           0.0000             GW IRRIGATION =           0.0000
           SW IRRIGATION =           0.0000             SW IRRIGATION =           0.0000
        SYSTEM LOSSES GW =           0.0000          SYSTEM LOSSES GW =           0.0000
        SYSTEM LOSSES SW =           0.0000          SYSTEM LOSSES SW =           0.0000

                TOTAL IN =  1615591040.0000                  TOTAL IN =           0.0000

          OUT:                                     OUT:
          ----                                     ----
               AG WELLS  =           0.0000                 AG WELLS  =           0.0000
      DIVERSION SEGMENTS =           0.0000        DIVERSION SEGMENTS =           0.0000
       IRRIGATION PONDS  =           0.0000         IRRIGATION PONDS  =           0.0000
           GW IRRIGATION =  1615591040.0000             GW IRRIGATION =           0.0000
           SW IRRIGATION =           0.0000             SW IRRIGATION =           0.0000
        SYSTEM LOSSES GW =           0.0000          SYSTEM LOSSES GW =           0.0000
        SYSTEM LOSSES SW =           0.0000          SYSTEM LOSSES SW =           0.0000

               TOTAL OUT =  1615591040.0000                 TOTAL OUT =           0.0000

                IN - OUT =           0.0000                  IN - OUT =           0.0000

     PERCENT DISCREPANCY =           0.00         PERCENT DISCREPANCY =           0.00



1
  VOLUMETRIC BUDGET FOR ENTIRE MODEL AT END OF TIME STEP   30, STRESS PERIOD  49
  ------------------------------------------------------------------------------

     CUMULATIVE VOLUMES      L**3       RATES FOR THIS TIME STEP      L**3/T
     ------------------                 ------------------------

           IN:                                      IN:
           ---                                      ---
             STORAGE     =  2194591744.0000               STORAGE     =           7.1504
       CONSTANT HEAD     =           0.0000         CONSTANT HEAD     =           0.0000
     HEAD DEP BOUNDS     =    36183812.0000       HEAD DEP BOUNDS     =           0.2890
      STREAM LEAKAGE     =  1549963136.0000        STREAM LEAKAGE     =          12.5016
        UZF RECHARGE     =       73223.9531          UZF RECHARGE     =           0.0000
               GW ET     =           0.0000                 GW ET     =           0.0000
     SURFACE LEAKAGE     =           0.0000       SURFACE LEAKAGE     =           0.0000
           AG WELLS      =           0.0000             AG WELLS      =           0.0000

                TOTAL IN =  3780811776.0000                  TOTAL IN =          19.9410

          OUT:                                     OUT:
          ----                                     ----
             STORAGE     =   840051328.0000               STORAGE     =          10.3951
       CONSTANT HEAD     =           0.0000         CONSTANT HEAD     =           0.0000
     HEAD DEP BOUNDS     =    36829068.0000       HEAD DEP BOUNDS     =           0.2887
      STREAM LEAKAGE     =  1270739712.0000        STREAM LEAKAGE     =           9.2572
        UZF RECHARGE     =           0.0000          UZF RECHARGE     =           0.0000
               GW ET     =    17603406.0000                 GW ET     =           0.0000
     SURFACE LEAKAGE     =           0.0000       SURFACE LEAKAGE     =           0.0000
           AG WELLS      =  1615591040.0000             AG WELLS      =           0.0000

               TOTAL OUT =  3780814336.0000                 TOTAL OUT =          19.9410

                IN - OUT =       -2560.0000                  IN - OUT =       1.7166E-05

     PERCENT DISCREPANCY =          -0.00         PERCENT DISCREPANCY =           0.00






         TIME SUMMARY AT END OF TIME STEP   30 IN STRESS PERIOD   49
                    SECONDS     MINUTES      HOURS       DAYS        YEARS
                    -----------------------------------------------------------
   TIME STEP LENGTH  87667.      1461.1      24.352      1.0147     2.77799E-03
 STRESS PERIOD TIME 2.63000E+06  43833.      730.56      30.440     8.33397E-02
         TOTAL TIME 1.26325E+08 2.10542E+06  35090.      1462.1      4.0030    
1


 Run end date and time (yyyy/mm/dd hh:mm:ss): 2021/09/09 14:34:37
 Elapsed run time: 3.677 Seconds

